
     RDKit          3D

 88 93  0  0  0  0  0  0  0  0999 V2000
    1.2083    0.2093    1.1055 C   0  0  0  0  0  0  0  0  0  0  0  0
    2.5422   -0.2132    1.0987 C   0  0  0  0  0  0  0  0  0  0  0  0
    3.1608   -0.6347    2.2787 C   0  0  0  0  0  0  0  0  0  0  0  0
    2.4453   -0.6499    3.4786 C   0  0  0  0  0  0  0  0  0  0  0  0
    1.1087   -0.2374    3.4927 C   0  0  0  0  0  0  0  0  0  0  0  0
    0.4963    0.1914    2.3137 C   0  0  0  0  0  0  0  0  0  0  0  0
    0.5369    0.6894   -0.1629 C   0  0  0  0  0  0  0  0  0  0  0  0
   -0.8140    0.2498   -0.2723 O   0  0  0  0  0  0  0  0  0  0  0  0
   -1.1159   -1.0074   -0.8211 C   0  0  2  0  0  0  0  0  0  0  0  0
   -2.1394   -1.2168   -0.4900 H   0  0  0  0  0  0  0  0  0  0  0  0
   -0.2371   -2.1973   -0.3662 C   0  0  1  0  0  0  0  0  0  0  0  0
   -0.1047   -2.1385    0.7258 H   0  0  0  0  0  0  0  0  0  0  0  0
   -0.8766   -3.5599   -0.7078 C   0  0  2  0  0  0  0  0  0  0  0  0
   -1.1409   -3.5717   -1.7796 H   0  0  0  0  0  0  0  0  0  0  0  0
   -2.1884   -3.8390    0.0514 C   0  0  1  0  0  0  0  0  0  0  0  0
   -2.1485   -3.4395    1.0805 H   0  0  0  0  0  0  0  0  0  0  0  0
   -3.1940   -3.2053   -0.7212 O   0  0  0  0  0  0  0  0  0  0  0  0
   -4.4923   -3.1192   -0.1363 C   0  0  0  0  0  0  0  0  0  0  0  0
   -5.3810   -2.4720   -1.1608 C   0  0  0  0  0  0  0  0  0  0  0  0
   -6.0946   -3.2569   -2.0758 C   0  0  0  0  0  0  0  0  0  0  0  0
   -6.8495   -2.6545   -3.0835 C   0  0  0  0  0  0  0  0  0  0  0  0
   -6.8856   -1.2621   -3.1943 C   0  0  0  0  0  0  0  0  0  0  0  0
   -6.1634   -0.4714   -2.2957 C   0  0  0  0  0  0  0  0  0  0  0  0
   -5.4153   -1.0754   -1.2829 C   0  0  0  0  0  0  0  0  0  0  0  0
   -2.4171   -5.3538    0.1596 C   0  0  0  0  0  0  0  0  0  0  0  0
   -2.0991   -5.9910    1.1437 O   0  0  0  0  0  0  0  0  0  0  0  0
   -2.9512   -5.8873   -0.9761 N   0  0  0  0  0  0  0  0  0  0  0  0
   -2.7688   -7.2832   -1.2985 C   0  0  1  0  0  0  0  0  0  0  0  0
   -2.8716   -7.8470   -0.3580 H   0  0  0  0  0  0  0  0  0  0  0  0
   -3.7417   -7.7664   -2.3442 C   0  0  0  0  0  0  0  0  0  0  0  0
   -3.0828   -8.4938   -3.3431 C   0  0  0  0  0  0  0  0  0  0  0  0
   -3.8062   -9.0179   -4.4168 C   0  0  0  0  0  0  0  0  0  0  0  0
   -5.1884   -8.8042   -4.4789 C   0  0  0  0  0  0  0  0  0  0  0  0
   -5.8429   -8.0760   -3.4766 C   0  0  0  0  0  0  0  0  0  0  0  0
   -5.1188   -7.5510   -2.4013 C   0  0  0  0  0  0  0  0  0  0  0  0
   -1.6047   -8.5920   -3.0518 C   0  0  0  0  0  0  0  0  0  0  0  0
   -1.3464   -7.5659   -1.9276 C   0  0  1  0  0  0  0  0  0  0  0  0
   -0.6741   -7.9707   -1.1538 H   0  0  0  0  0  0  0  0  0  0  0  0
   -0.7843   -6.3987   -2.4871 O   0  0  0  0  0  0  0  0  0  0  0  0
    0.0687   -4.5809   -0.4560 O   0  0  0  0  0  0  0  0  0  0  0  0
    1.0614   -2.1833   -0.9388 O   0  0  0  0  0  0  0  0  0  0  0  0
   -1.0847   -0.9974   -2.3513 C   0  0  0  0  0  0  0  0  0  0  0  0
   -0.0921   -0.5617   -2.9555 O   0  0  0  0  0  0  0  0  0  0  0  0
   -2.0986   -1.6170   -2.9715 N   0  0  0  0  0  0  0  0  0  0  0  0
   -2.0037   -1.9786   -4.3837 C   0  0  1  0  0  0  0  0  0  0  0  0
   -0.9614   -2.2824   -4.5680 H   0  0  0  0  0  0  0  0  0  0  0  0
   -3.0109   -3.0445   -4.7354 C   0  0  0  0  0  0  0  0  0  0  0  0
   -4.1039   -2.4686   -5.4033 C   0  0  0  0  0  0  0  0  0  0  0  0
   -5.1557   -3.2771   -5.8350 C   0  0  0  0  0  0  0  0  0  0  0  0
   -5.1075   -4.6522   -5.5776 C   0  0  0  0  0  0  0  0  0  0  0  0
   -4.0224   -5.2177   -4.8973 C   0  0  0  0  0  0  0  0  0  0  0  0
   -2.9589   -4.4137   -4.4685 C   0  0  0  0  0  0  0  0  0  0  0  0
   -3.9198   -0.9752   -5.5281 C   0  0  0  0  0  0  0  0  0  0  0  0
   -2.4049   -0.7994   -5.3227 C   0  0  1  0  0  0  0  0  0  0  0  0
   -1.9006   -0.9967   -6.2914 H   0  0  0  0  0  0  0  0  0  0  0  0
   -2.0886    0.4690   -4.8267 O   0  0  0  0  0  0  0  0  0  0  0  0
    3.0952   -0.2300    0.1567 H   0  0  0  0  0  0  0  0  0  0  0  0
    4.2020   -0.9660    2.2581 H   0  0  0  0  0  0  0  0  0  0  0  0
    2.9254   -0.9876    4.4003 H   0  0  0  0  0  0  0  0  0  0  0  0
    0.5425   -0.2499    4.4274 H   0  0  0  0  0  0  0  0  0  0  0  0
   -0.5504    0.5042    2.3152 H   0  0  0  0  0  0  0  0  0  0  0  0
    1.1234    0.4172   -1.0504 H   0  0  0  0  0  0  0  0  0  0  0  0
    0.4647    1.7896   -0.1464 H   0  0  0  0  0  0  0  0  0  0  0  0
   -4.4399   -2.5197    0.7909 H   0  0  0  0  0  0  0  0  0  0  0  0
   -4.8544   -4.1282    0.1246 H   0  0  0  0  0  0  0  0  0  0  0  0
   -6.0461   -4.3464   -2.0075 H   0  0  0  0  0  0  0  0  0  0  0  0
   -7.3997   -3.2753   -3.7919 H   0  0  0  0  0  0  0  0  0  0  0  0
   -7.4706   -0.7916   -3.9879 H   0  0  0  0  0  0  0  0  0  0  0  0
   -6.1819    0.6172   -2.3840 H   0  0  0  0  0  0  0  0  0  0  0  0
   -4.8502   -0.4572   -0.5798 H   0  0  0  0  0  0  0  0  0  0  0  0
   -3.0659   -5.2554   -1.7634 H   0  0  0  0  0  0  0  0  0  0  0  0
   -3.3000   -9.5798   -5.2059 H   0  0  0  0  0  0  0  0  0  0  0  0
   -5.7611   -9.2041   -5.3192 H   0  0  0  0  0  0  0  0  0  0  0  0
   -6.9216   -7.9141   -3.5392 H   0  0  0  0  0  0  0  0  0  0  0  0
   -5.6185   -6.9745   -1.6188 H   0  0  0  0  0  0  0  0  0  0  0  0
   -1.3447   -9.6112   -2.7180 H   0  0  0  0  0  0  0  0  0  0  0  0
   -0.9725   -8.3614   -3.9224 H   0  0  0  0  0  0  0  0  0  0  0  0
   -0.3824   -5.8715   -1.7682 H   0  0  0  0  0  0  0  0  0  0  0  0
    0.9317   -4.1716   -0.6537 H   0  0  0  0  0  0  0  0  0  0  0  0
    1.0149   -1.7325   -1.8042 H   0  0  0  0  0  0  0  0  0  0  0  0
   -2.8493   -2.0122   -2.4082 H   0  0  0  0  0  0  0  0  0  0  0  0
   -6.0070   -2.8432   -6.3657 H   0  0  0  0  0  0  0  0  0  0  0  0
   -5.9232   -5.2979   -5.9125 H   0  0  0  0  0  0  0  0  0  0  0  0
   -3.9976   -6.2910   -4.7149 H   0  0  0  0  0  0  0  0  0  0  0  0
   -2.1052   -4.8689   -3.9563 H   0  0  0  0  0  0  0  0  0  0  0  0
   -4.2767   -0.5584   -6.4815 H   0  0  0  0  0  0  0  0  0  0  0  0
   -4.4495   -0.4516   -4.7131 H   0  0  0  0  0  0  0  0  0  0  0  0
   -1.1780    0.4365   -4.4890 H   0  0  0  0  0  0  0  0  0  0  0  0
  1  2  2  0
  1  6  1  0
  1  7  1  0
  2  3  1  0
  2 57  1  0
  3  4  2  0
  3 58  1  0
  4  5  1  0
  4 59  1  0
  5  6  2  0
  5 60  1  0
  6 61  1  0
  7  8  1  0
  7 62  1  0
  7 63  1  0
  8  9  1  0
  9 10  1  6
  9 11  1  0
  9 42  1  0
 11 12  1  1
 11 13  1  0
 11 41  1  0
 13 14  1  6
 13 15  1  0
 13 40  1  0
 15 16  1  1
 15 17  1  0
 15 25  1  0
 17 18  1  0
 18 19  1  0
 18 64  1  0
 18 65  1  0
 19 20  2  0
 19 24  1  0
 20 21  1  0
 20 66  1  0
 21 22  2  0
 21 67  1  0
 22 23  1  0
 22 68  1  0
 23 24  2  0
 23 69  1  0
 24 70  1  0
 25 26  2  0
 25 27  1  0
 27 28  1  0
 27 71  1  0
 28 29  1  1
 28 30  1  0
 28 37  1  0
 30 31  1  0
 30 35  2  0
 31 32  2  0
 31 36  1  0
 32 33  1  0
 32 72  1  0
 33 34  2  0
 33 73  1  0
 34 35  1  0
 34 74  1  0
 35 75  1  0
 36 37  1  0
 36 76  1  0
 36 77  1  0
 37 38  1  1
 37 39  1  0
 39 78  1  0
 40 79  1  0
 41 80  1  0
 42 43  2  0
 42 44  1  0
 44 45  1  0
 44 81  1  0
 45 46  1  6
 45 47  1  0
 45 54  1  0
 47 48  1  0
 47 52  2  0
 48 49  2  0
 48 53  1  0
 49 50  1  0
 49 82  1  0
 50 51  2  0
 50 83  1  0
 51 52  1  0
 51 84  1  0
 52 85  1  0
 53 54  1  0
 53 86  1  0
 53 87  1  0
 54 55  1  6
 54 56  1  0
 56 88  1  0
M  END

