88
rmsd18.gzmat
C          0.00000        0.00000        0.00000
C          1.39570        0.00000        0.00000
C          2.08900        0.00000        1.20770
C          1.38860        0.00250        2.41360
C         -0.00530        0.00170        2.41190
C         -0.70180       -0.00060        1.20500
C         -0.73780       -0.00860       -1.30140
O         -0.29220       -1.05650       -2.15410
C         -0.48680       -2.36220       -1.65100
H          0.04660       -2.47270       -0.66940
C          0.16060       -3.29460       -2.69480
H         -0.18820       -4.34630       -2.55510
C         -0.01520       -2.79300       -4.15380
H         -0.22600       -1.69310       -4.21560
C         -1.10890       -3.58860       -4.91600
H         -1.59990       -4.37010       -4.29840
O         -2.05010       -2.59350       -5.26440
C         -3.23440       -3.06210       -5.91110
C         -3.38030       -2.27150       -7.17810
C         -4.02810       -2.83570       -8.27740
C         -4.13080       -2.11510       -9.46490
C         -3.58340       -0.83630       -9.55770
C         -2.94360       -0.27180       -8.45610
C         -2.84810       -0.98450       -7.26280
C         -0.43490       -4.23270       -6.13420
O          0.17460       -5.28010       -6.01920
N         -0.53510       -3.55570       -7.31610
C          0.25860       -3.93930       -8.47610
H          0.76900       -4.92010       -8.29140
C         -0.60960       -3.98850       -9.70640
C         -0.25770       -2.98590      -10.62410
C         -0.95170       -2.84970      -11.81490
C         -2.00460       -3.73180      -12.08090
C         -2.34950       -4.72740      -11.17010
C         -1.64850       -4.86350       -9.96670
C          0.88890       -2.16230      -10.13810
C          1.31600       -2.80280       -8.79520
H          2.34350       -3.21230       -8.81640
O          1.27090       -1.76120       -7.85530
O          1.20260       -2.89600       -4.84420
O          1.53130       -3.39490       -2.41030
C         -1.98210       -2.61670       -1.41740
O         -2.38130       -3.03240       -0.34500
N         -2.81470       -2.26240       -2.44750
C         -4.26430       -2.35010       -2.37890
H         -4.66800       -2.11850       -3.40420
C         -4.79030       -3.69280       -1.93770
C         -5.86450       -3.53630       -1.04510
C         -6.50870       -4.64250       -0.51930
C         -6.06480       -5.91590       -0.89460
C         -5.00200       -6.06820       -1.78060
C         -4.35270       -4.94890       -2.31450
C         -6.14690       -2.09400       -0.77550
C         -4.93020       -1.33010       -1.36590
H         -5.20020       -0.37450       -1.85280
O         -4.06660       -0.94150       -0.34700
H          1.93590       -0.00430       -0.94520
H          3.17670       -0.00180        1.21090
H          1.93090        0.00380        3.35670
H         -0.55150       -0.00290        3.35330
H         -1.79290       -0.01180        1.20480
H         -0.50450        0.88310       -1.92010
H         -1.83910       -0.07550       -1.17540
H         -4.05730       -2.84550       -5.19960
H         -3.20110       -4.15040       -6.09870
H         -4.44370       -3.83930       -8.21760
H         -4.62700       -2.55750      -10.32700
H         -3.65250       -0.28210      -10.49170
H         -2.51380        0.72630       -8.52780
H         -2.34680       -0.53990       -6.40200
H         -0.99210       -2.64590       -7.36930
H         -0.68770       -2.07500      -12.52840
H         -2.55710       -3.63830      -13.01390
H         -3.16820       -5.40730      -11.39420
H         -1.91600       -5.63870       -9.25220
H          1.72340       -2.13000      -10.85840
H          0.58830       -1.10530       -9.96930
H          1.35570       -2.09560       -6.93180
H          1.63000       -3.77910       -4.69160
H          1.97430       -2.52130       -2.53890
H         -2.42890       -1.94740       -3.33460
H         -7.33430       -4.53020        0.17780
H         -6.55510       -6.79580       -0.48110
H         -4.66520       -7.06560       -2.05610
H         -3.51560       -5.07160       -2.99600
H         -7.09250       -1.76960       -1.24330
H         -6.24810       -1.87670        0.30490
H         -3.64880       -1.73480        0.08050
