88
rmsd30.gzmat
C          0.00000        0.00000        0.00000
C          1.39480        0.00000        0.00000
C          2.08800        0.00000        1.20900
C          1.38990       -0.00690        2.41520
C         -0.00440       -0.01100        2.41400
C         -0.70000       -0.00550        1.20770
C         -0.76180       -0.00040       -1.29080
O         -1.82430       -0.94300       -1.22450
C         -1.55990       -2.26410       -1.58900
H         -2.50390       -2.75310       -1.22300
C         -0.32670       -2.90870       -0.93130
H         -0.28950       -2.68250        0.16130
C         -0.28310       -4.43390       -1.21050
H         -0.24260       -4.63690       -2.30610
C         -1.44880       -5.19260       -0.54530
H         -1.61040       -4.87130        0.50770
O         -2.57410       -4.88970       -1.35300
C         -3.81010       -5.37660       -0.81770
C         -4.83040       -4.92630       -1.81660
C         -5.43930       -5.85630       -2.65920
C         -6.40230       -5.43500       -3.57380
C         -6.74090       -4.08490       -3.65920
C         -6.12420       -3.15540       -2.82250
C         -5.17220       -3.57560       -1.89710
C         -1.23530       -6.71500       -0.59420
O         -1.10220       -7.37270        0.41950
N         -1.27980       -7.25440       -1.85680
C         -1.12740       -8.67730       -2.11240
H         -1.04990       -8.82010       -3.22510
C          0.08570       -9.27880       -1.44980
C         -0.22300      -10.51850       -0.86640
C          0.75400      -11.24900       -0.21260
C          2.04800      -10.72030       -0.13990
C          2.34820       -9.48640       -0.71050
C          1.36070       -8.74970       -1.37430
C         -1.66850      -10.85920       -1.03360
C         -2.32890       -9.56710       -1.58750
H         -3.08270       -9.75740       -2.37300
O         -3.05560       -8.92960       -0.58470
O          0.88210       -4.98610       -0.64540
O          0.88730       -2.39010       -1.41220
C         -1.38910       -2.38860       -3.10860
O         -0.46350       -1.85460       -3.69790
N         -2.29940       -3.18780       -3.75960
C         -2.08940       -3.53360       -5.16640
H         -1.29250       -2.87850       -5.60580
C         -1.76270       -5.00350       -5.27150
C         -2.85940       -5.73210       -5.76290
C         -2.78550       -7.10890       -5.88980
C         -1.58960       -7.74870       -5.54550
C         -0.49770       -7.02100       -5.07850
C         -0.57960       -5.63220       -4.93110
C         -4.00070       -4.83650       -6.11050
C         -3.42310       -3.39840       -6.00000
H         -3.21480       -2.96040       -7.00000
O         -4.35560       -2.51560       -5.46200
H          1.94250       -0.02120       -0.94110
H          3.17590       -0.00210        1.20950
H          1.93250       -0.01190        3.35790
H         -0.54810       -0.01600        3.35570
H         -1.78900       -0.01090        1.20010
H         -0.12580       -0.16660       -2.17970
H         -1.32380        0.94780       -1.43430
H         -3.97280       -4.93940        0.18550
H         -3.75700       -6.48300       -0.72530
H         -5.16920       -6.91130       -2.59750
H         -6.89310       -6.16080       -4.21980
H         -7.48800       -3.75470       -4.38030
H         -6.39560       -2.10210       -2.88690
H         -4.70820       -2.85150       -1.22680
H         -1.49090       -6.66200       -2.65220
H          0.52340      -12.20540        0.24670
H          2.82470      -11.27890        0.37930
H          3.35470       -9.08090       -0.63130
H          1.58700       -7.77110       -1.79460
H         -1.81310      -11.71380       -1.71500
H         -2.14200      -11.14760       -0.07540
H         -2.45070       -8.63170        0.14340
H          1.60400       -4.30840       -0.64500
H          0.81970       -2.13900       -2.36750
H         -2.92270       -3.79370       -3.22790
H         -3.63200       -7.68170       -6.25730
H         -1.51150       -8.82930       -5.65990
H          0.43310       -7.53150       -4.83260
H          0.27590       -5.06180       -4.57210
H         -4.40610       -5.03030       -7.11750
H         -4.85510       -4.96440       -5.41730
H         -4.36930       -2.55190       -4.48160
