
     RDKit          3D

 88 93  0  0  0  0  0  0  0  0999 V2000
    0.0721   -0.6379    0.0655 C   0  0  0  0  0  0  0  0  0  0  0  0
    1.1040    0.0247   -0.6159 C   0  0  0  0  0  0  0  0  0  0  0  0
    2.4207   -0.0480   -0.1558 C   0  0  0  0  0  0  0  0  0  0  0  0
    2.7234   -0.8008    0.9840 C   0  0  0  0  0  0  0  0  0  0  0  0
    1.7034   -1.4638    1.6721 C   0  0  0  0  0  0  0  0  0  0  0  0
    0.3846   -1.3657    1.2226 C   0  0  0  0  0  0  0  0  0  0  0  0
   -1.3328   -0.6120   -0.4855 C   0  0  0  0  0  0  0  0  0  0  0  0
   -1.4932   -1.4920   -1.6095 O   0  0  0  0  0  0  0  0  0  0  0  0
   -2.2440   -2.6987   -1.4449 C   0  0  2  0  0  0  0  0  0  0  0  0
   -2.8276   -2.6413   -0.5116 H   0  0  0  0  0  0  0  0  0  0  0  0
   -1.3086   -3.9109   -1.3153 C   0  0  1  0  0  0  0  0  0  0  0  0
   -1.9368   -4.7938   -1.1454 H   0  0  0  0  0  0  0  0  0  0  0  0
   -0.4598   -4.1699   -2.5959 C   0  0  2  0  0  0  0  0  0  0  0  0
   -0.9543   -4.9572   -3.1791 H   0  0  0  0  0  0  0  0  0  0  0  0
    0.9643   -4.6297   -2.2452 C   0  0  1  0  0  0  0  0  0  0  0  0
    1.4630   -4.9232   -3.1834 H   0  0  0  0  0  0  0  0  0  0  0  0
    1.6423   -3.5234   -1.6561 O   0  0  0  0  0  0  0  0  0  0  0  0
    2.7335   -2.9604   -2.3889 C   0  0  0  0  0  0  0  0  0  0  0  0
    4.0161   -3.7112   -2.1380 C   0  0  0  0  0  0  0  0  0  0  0  0
    4.5770   -4.5456   -3.1118 C   0  0  0  0  0  0  0  0  0  0  0  0
    5.7419   -5.2711   -2.8401 C   0  0  0  0  0  0  0  0  0  0  0  0
    6.3525   -5.1685   -1.5886 C   0  0  0  0  0  0  0  0  0  0  0  0
    5.7949   -4.3425   -0.6064 C   0  0  0  0  0  0  0  0  0  0  0  0
    4.6351   -3.6196   -0.8808 C   0  0  0  0  0  0  0  0  0  0  0  0
    0.9525   -5.8567   -1.3265 C   0  0  0  0  0  0  0  0  0  0  0  0
    0.1722   -6.7721   -1.5373 O   0  0  0  0  0  0  0  0  0  0  0  0
    1.8597   -5.8191   -0.3231 N   0  0  0  0  0  0  0  0  0  0  0  0
    1.8258   -6.7335    0.7930 C   0  0  1  0  0  0  0  0  0  0  0  0
    1.4230   -7.6873    0.4158 H   0  0  0  0  0  0  0  0  0  0  0  0
    3.1811   -6.9186    1.4331 C   0  0  0  0  0  0  0  0  0  0  0  0
    3.0754   -6.9044    2.8300 C   0  0  0  0  0  0  0  0  0  0  0  0
    4.2166   -7.0543    3.6182 C   0  0  0  0  0  0  0  0  0  0  0  0
    5.4603   -7.2129    2.9936 C   0  0  0  0  0  0  0  0  0  0  0  0
    5.5596   -7.2229    1.5968 C   0  0  0  0  0  0  0  0  0  0  0  0
    4.4149   -7.0744    0.8056 C   0  0  0  0  0  0  0  0  0  0  0  0
    1.6343   -6.7285    3.2475 C   0  0  0  0  0  0  0  0  0  0  0  0
    0.9278   -6.2165    1.9775 C   0  0  1  0  0  0  0  0  0  0  0  0
   -0.0949   -6.6206    1.8834 H   0  0  0  0  0  0  0  0  0  0  0  0
    0.8974   -4.8066    2.0135 O   0  0  0  0  0  0  0  0  0  0  0  0
   -0.3553   -3.0359   -3.4535 O   0  0  0  0  0  0  0  0  0  0  0  0
   -0.5154   -3.7431   -0.1506 O   0  0  0  0  0  0  0  0  0  0  0  0
   -3.2415   -2.9144   -2.5907 C   0  0  0  0  0  0  0  0  0  0  0  0
   -3.9035   -3.9376   -2.6202 O   0  0  0  0  0  0  0  0  0  0  0  0
   -3.2984   -1.9134   -3.4987 N   0  0  0  0  0  0  0  0  0  0  0  0
   -3.9962   -2.0416   -4.7680 C   0  0  1  0  0  0  0  0  0  0  0  0
   -4.8143   -2.7554   -4.6046 H   0  0  0  0  0  0  0  0  0  0  0  0
   -4.4314   -0.6872   -5.2754 C   0  0  0  0  0  0  0  0  0  0  0  0
   -3.5218   -0.2111   -6.2359 C   0  0  0  0  0  0  0  0  0  0  0  0
   -3.7164    1.0415   -6.8207 C   0  0  0  0  0  0  0  0  0  0  0  0
   -4.8186    1.8121   -6.4326 C   0  0  0  0  0  0  0  0  0  0  0  0
   -5.7184    1.3373   -5.4698 C   0  0  0  0  0  0  0  0  0  0  0  0
   -5.5267    0.0816   -4.8828 C   0  0  0  0  0  0  0  0  0  0  0  0
   -2.4242   -1.2201   -6.4675 C   0  0  0  0  0  0  0  0  0  0  0  0
   -3.0335   -2.5310   -5.9065 C   0  0  1  0  0  0  0  0  0  0  0  0
   -3.6799   -2.9621   -6.6899 H   0  0  0  0  0  0  0  0  0  0  0  0
   -2.1253   -3.5183   -5.5484 O   0  0  0  0  0  0  0  0  0  0  0  0
    0.8720    0.6042   -1.5140 H   0  0  0  0  0  0  0  0  0  0  0  0
    3.2148    0.4801   -0.6892 H   0  0  0  0  0  0  0  0  0  0  0  0
    3.7550   -0.8647    1.3384 H   0  0  0  0  0  0  0  0  0  0  0  0
    1.9275   -2.0785    2.5459 H   0  0  0  0  0  0  0  0  0  0  0  0
   -0.4061   -1.8925    1.7590 H   0  0  0  0  0  0  0  0  0  0  0  0
   -1.5792    0.3993   -0.8468 H   0  0  0  0  0  0  0  0  0  0  0  0
   -2.0605   -0.8832    0.2948 H   0  0  0  0  0  0  0  0  0  0  0  0
    2.8131   -1.9268   -2.0265 H   0  0  0  0  0  0  0  0  0  0  0  0
    2.4829   -2.9344   -3.4611 H   0  0  0  0  0  0  0  0  0  0  0  0
    4.1016   -4.6259   -4.0933 H   0  0  0  0  0  0  0  0  0  0  0  0
    6.1715   -5.9182   -3.6085 H   0  0  0  0  0  0  0  0  0  0  0  0
    7.2603   -5.7371   -1.3736 H   0  0  0  0  0  0  0  0  0  0  0  0
    6.2598   -4.2743    0.3790 H   0  0  0  0  0  0  0  0  0  0  0  0
    4.1944   -2.9780   -0.1138 H   0  0  0  0  0  0  0  0  0  0  0  0
    2.3252   -4.9312   -0.1705 H   0  0  0  0  0  0  0  0  0  0  0  0
    4.1455   -7.0401    4.7091 H   0  0  0  0  0  0  0  0  0  0  0  0
    6.3614   -7.3252    3.6019 H   0  0  0  0  0  0  0  0  0  0  0  0
    6.5368   -7.3416    1.1218 H   0  0  0  0  0  0  0  0  0  0  0  0
    4.4850   -7.0616   -0.2837 H   0  0  0  0  0  0  0  0  0  0  0  0
    1.2047   -7.6941    3.5670 H   0  0  0  0  0  0  0  0  0  0  0  0
    1.4969   -6.0147    4.0736 H   0  0  0  0  0  0  0  0  0  0  0  0
    0.2842   -4.5099    1.3164 H   0  0  0  0  0  0  0  0  0  0  0  0
   -0.3444   -2.2376   -2.8963 H   0  0  0  0  0  0  0  0  0  0  0  0
    0.2689   -3.2145   -0.3863 H   0  0  0  0  0  0  0  0  0  0  0  0
   -2.6644   -1.1354   -3.3560 H   0  0  0  0  0  0  0  0  0  0  0  0
   -3.0197    1.4169   -7.5749 H   0  0  0  0  0  0  0  0  0  0  0  0
   -4.9816    2.7923   -6.8877 H   0  0  0  0  0  0  0  0  0  0  0  0
   -6.5765    1.9490   -5.1808 H   0  0  0  0  0  0  0  0  0  0  0  0
   -6.2261   -0.2949   -4.1319 H   0  0  0  0  0  0  0  0  0  0  0  0
   -2.1162   -1.3121   -7.5199 H   0  0  0  0  0  0  0  0  0  0  0  0
   -1.5168   -0.9561   -5.8918 H   0  0  0  0  0  0  0  0  0  0  0  0
   -1.5143   -3.1869   -4.8614 H   0  0  0  0  0  0  0  0  0  0  0  0
  1  2  2  0
  1  6  1  0
  1  7  1  0
  2  3  1  0
  2 57  1  0
  3  4  2  0
  3 58  1  0
  4  5  1  0
  4 59  1  0
  5  6  2  0
  5 60  1  0
  6 61  1  0
  7  8  1  0
  7 62  1  0
  7 63  1  0
  8  9  1  0
  9 10  1  1
  9 11  1  0
  9 42  1  0
 11 12  1  1
 11 13  1  0
 11 41  1  0
 13 14  1  6
 13 15  1  0
 13 40  1  0
 15 16  1  6
 15 17  1  0
 15 25  1  0
 17 18  1  0
 18 19  1  0
 18 64  1  0
 18 65  1  0
 19 20  2  0
 19 24  1  0
 20 21  1  0
 20 66  1  0
 21 22  2  0
 21 67  1  0
 22 23  1  0
 22 68  1  0
 23 24  2  0
 23 69  1  0
 24 70  1  0
 25 26  2  0
 25 27  1  0
 27 28  1  0
 27 71  1  0
 28 29  1  6
 28 30  1  0
 28 37  1  0
 30 31  1  0
 30 35  2  0
 31 32  2  0
 31 36  1  0
 32 33  1  0
 32 72  1  0
 33 34  2  0
 33 73  1  0
 34 35  1  0
 34 74  1  0
 35 75  1  0
 36 37  1  0
 36 76  1  0
 36 77  1  0
 37 38  1  6
 37 39  1  0
 39 78  1  0
 40 79  1  0
 41 80  1  0
 42 43  2  0
 42 44  1  0
 44 45  1  0
 44 81  1  0
 45 46  1  1
 45 47  1  0
 45 54  1  0
 47 48  1  0
 47 52  2  0
 48 49  2  0
 48 53  1  0
 49 50  1  0
 49 82  1  0
 50 51  2  0
 50 83  1  0
 51 52  1  0
 51 84  1  0
 52 85  1  0
 53 54  1  0
 53 86  1  0
 53 87  1  0
 54 55  1  6
 54 56  1  0
 56 88  1  0
M  END

