rmsd110.gzmat
 OpenBabel08211713413D

 88 93  0  0  1  0  0  0  0  0999 V2000
    0.0000    0.0000    0.0000 C   0  0  0  0  0  0  0  0  0  0  0  0
    1.3956    0.0000    0.0000 C   0  0  0  0  0  0  0  0  0  0  0  0
    2.0912    0.0000    1.2072 C   0  0  0  0  0  0  0  0  0  0  0  0
    1.3924   -0.0055    2.4137 C   0  0  0  0  0  0  0  0  0  0  0  0
   -0.0016   -0.0051    2.4125 C   0  0  0  0  0  0  0  0  0  0  0  0
   -0.6998    0.0010    1.2066 C   0  0  0  0  0  0  0  0  0  0  0  0
   -0.7368   -0.0505   -1.3040 C   0  0  0  0  0  0  0  0  0  0  0  0
   -0.6912   -1.3788   -1.8097 O   0  0  0  0  0  0  0  0  0  0  0  0
   -1.6170   -2.2723   -1.2324 C   0  0  2  0  0  0  0  0  0  0  0  0
   -1.7211   -2.0712   -0.1336 H   0  0  0  0  0  0  0  0  0  0  0  0
   -1.0490   -3.6993   -1.4096 C   0  0  1  0  0  0  0  0  0  0  0  0
   -1.8630   -4.4416   -1.1852 H   0  0  0  0  0  0  0  0  0  0  0  0
   -0.4070   -4.0385   -2.7825 C   0  0  2  0  0  0  0  0  0  0  0  0
   -0.9606   -4.8956   -3.2554 H   0  0  0  0  0  0  0  0  0  0  0  0
    1.1033   -4.3889   -2.7324 C   0  0  1  0  0  0  0  0  0  0  0  0
    1.4951   -4.4503   -3.7787 H   0  0  0  0  0  0  0  0  0  0  0  0
    1.7104   -3.3187   -2.0461 O   0  0  0  0  0  0  0  0  0  0  0  0
    3.0840   -3.0694   -2.3258 C   0  0  0  0  0  0  0  0  0  0  0  0
    3.8748   -3.3799   -1.0906 C   0  0  0  0  0  0  0  0  0  0  0  0
    5.0676   -4.0975   -1.1745 C   0  0  0  0  0  0  0  0  0  0  0  0
    5.7667   -4.4147   -0.0117 C   0  0  0  0  0  0  0  0  0  0  0  0
    5.2727   -4.0242    1.2317 C   0  0  0  0  0  0  0  0  0  0  0  0
    4.0850   -3.2987    1.3136 C   0  0  0  0  0  0  0  0  0  0  0  0
    3.3920   -2.9664    0.1526 C   0  0  0  0  0  0  0  0  0  0  0  0
    1.2724   -5.7597   -2.0723 C   0  0  0  0  0  0  0  0  0  0  0  0
    0.8165   -6.7443   -2.6266 O   0  0  0  0  0  0  0  0  0  0  0  0
    1.9466   -5.8400   -0.8886 N   0  0  0  0  0  0  0  0  0  0  0  0
    2.1148   -7.1168   -0.2089 C   0  0  1  0  0  0  0  0  0  0  0  0
    1.5869   -7.9288   -0.7801 H   0  0  0  0  0  0  0  0  0  0  0  0
    3.5745   -7.4515   -0.0361 C   0  0  0  0  0  0  0  0  0  0  0  0
    3.9110   -7.6034    1.3185 C   0  0  0  0  0  0  0  0  0  0  0  0
    5.2106   -7.9063    1.6893 C   0  0  0  0  0  0  0  0  0  0  0  0
    6.1745   -8.0593    0.6867 C   0  0  0  0  0  0  0  0  0  0  0  0
    5.8374   -7.9121   -0.6563 C   0  0  0  0  0  0  0  0  0  0  0  0
    4.5243   -7.6051   -1.0296 C   0  0  0  0  0  0  0  0  0  0  0  0
    2.7325   -7.3957    2.2111 C   0  0  0  0  0  0  0  0  0  0  0  0
    1.5551   -7.0407    1.2694 C   0  0  1  0  0  0  0  0  0  0  0  0
    0.6796   -7.7055    1.3961 H   0  0  0  0  0  0  0  0  0  0  0  0
    1.1781   -5.7400    1.6355 O   0  0  0  0  0  0  0  0  0  0  0  0
   -0.5597   -3.0188   -3.7372 O   0  0  0  0  0  0  0  0  0  0  0  0
   -0.1579   -3.9176   -0.3482 O   0  0  0  0  0  0  0  0  0  0  0  0
   -2.9960   -2.1410   -1.8920 C   0  0  0  0  0  0  0  0  0  0  0  0
   -4.0157   -2.3623   -1.2734 O   0  0  0  0  0  0  0  0  0  0  0  0
   -2.9967   -1.7149   -3.1989 N   0  0  0  0  0  0  0  0  0  0  0  0
   -4.2272   -1.7064   -3.9789 C   0  0  1  0  0  0  0  0  0  0  0  0
   -5.1029   -1.5608   -3.2926 H   0  0  0  0  0  0  0  0  0  0  0  0
   -4.1518   -0.6292   -5.0301 C   0  0  0  0  0  0  0  0  0  0  0  0
   -4.1931   -1.1678   -6.3262 C   0  0  0  0  0  0  0  0  0  0  0  0
   -4.1177   -0.3405   -7.4345 C   0  0  0  0  0  0  0  0  0  0  0  0
   -4.0050    1.0392   -7.2339 C   0  0  0  0  0  0  0  0  0  0  0  0
   -3.9689    1.5718   -5.9474 C   0  0  0  0  0  0  0  0  0  0  0  0
   -4.0408    0.7348   -4.8286 C   0  0  0  0  0  0  0  0  0  0  0  0
   -4.3201   -2.6534   -6.3074 C   0  0  0  0  0  0  0  0  0  0  0  0
   -4.4231   -3.0431   -4.8085 C   0  0  1  0  0  0  0  0  0  0  0  0
   -5.3918   -3.5239   -4.5606 H   0  0  0  0  0  0  0  0  0  0  0  0
   -3.4987   -4.0386   -4.4995 O   0  0  0  0  0  0  0  0  0  0  0  0
    1.9397   -0.0066   -0.9428 H   0  0  0  0  0  0  0  0  0  0  0  0
    3.1803   -0.0007    1.2080 H   0  0  0  0  0  0  0  0  0  0  0  0
    1.9359   -0.0112    3.3565 H   0  0  0  0  0  0  0  0  0  0  0  0
   -0.5463   -0.0133    3.3548 H   0  0  0  0  0  0  0  0  0  0  0  0
   -1.7890    0.0033    1.2120 H   0  0  0  0  0  0  0  0  0  0  0  0
   -0.2233    0.5152   -2.1079 H   0  0  0  0  0  0  0  0  0  0  0  0
   -1.7799    0.3074   -1.2366 H   0  0  0  0  0  0  0  0  0  0  0  0
    3.0969   -1.9815   -2.5521 H   0  0  0  0  0  0  0  0  0  0  0  0
    3.4337   -3.6210   -3.2148 H   0  0  0  0  0  0  0  0  0  0  0  0
    5.4503   -4.4210   -2.1397 H   0  0  0  0  0  0  0  0  0  0  0  0
    6.6918   -4.9859   -0.0742 H   0  0  0  0  0  0  0  0  0  0  0  0
    5.8108   -4.2926    2.1386 H   0  0  0  0  0  0  0  0  0  0  0  0
    3.6918   -3.0010    2.2850 H   0  0  0  0  0  0  0  0  0  0  0  0
    2.4676   -2.3904    0.2158 H   0  0  0  0  0  0  0  0  0  0  0  0
    2.3072   -5.0205   -0.4118 H   0  0  0  0  0  0  0  0  0  0  0  0
    5.4801   -8.0228    2.7344 H   0  0  0  0  0  0  0  0  0  0  0  0
    7.1991   -8.2994    0.9636 H   0  0  0  0  0  0  0  0  0  0  0  0
    6.5975   -8.0403   -1.4235 H   0  0  0  0  0  0  0  0  0  0  0  0
    4.2560   -7.4888   -2.0774 H   0  0  0  0  0  0  0  0  0  0  0  0
    2.5094   -8.2860    2.8230 H   0  0  0  0  0  0  0  0  0  0  0  0
    2.9016   -6.5628    2.9270 H   0  0  0  0  0  0  0  0  0  0  0  0
    0.5356   -5.3502    0.9978 H   0  0  0  0  0  0  0  0  0  0  0  0
   -0.0571   -2.2132   -3.4588 H   0  0  0  0  0  0  0  0  0  0  0  0
    0.6315   -3.3281   -0.4303 H   0  0  0  0  0  0  0  0  0  0  0  0
   -2.1225   -1.6576   -3.7075 H   0  0  0  0  0  0  0  0  0  0  0  0
   -4.1448   -0.7504   -8.4399 H   0  0  0  0  0  0  0  0  0  0  0  0
   -3.9455    1.7017   -8.0957 H   0  0  0  0  0  0  0  0  0  0  0  0
   -3.8864    2.6473   -5.8087 H   0  0  0  0  0  0  0  0  0  0  0  0
   -4.0082    1.1485   -3.8230 H   0  0  0  0  0  0  0  0  0  0  0  0
   -5.2005   -3.0049   -6.8735 H   0  0  0  0  0  0  0  0  0  0  0  0
   -3.4476   -3.1509   -6.7751 H   0  0  0  0  0  0  0  0  0  0  0  0
   -2.5847   -3.6916   -4.4093 H   0  0  0  0  0  0  0  0  0  0  0  0
  1  6  1  0  0  0  0
  2  1  2  0  0  0  0
  2  3  1  0  0  0  0
  3 58  1  0  0  0  0
  3  4  2  0  0  0  0
  4 59  1  0  0  0  0
  5  4  1  0  0  0  0
  5 60  1  0  0  0  0
  6 61  1  0  0  0  0
  6  5  2  0  0  0  0
  7 63  1  0  0  0  0
  7  1  1  0  0  0  0
  8  7  1  0  0  0  0
  8  9  1  0  0  0  0
  9 10  1  1  0  0  0
 11  9  1  0  0  0  0
 11 12  1  1  0  0  0
 11 41  1  0  0  0  0
 13 14  1  6  0  0  0
 13 15  1  0  0  0  0
 13 11  1  0  0  0  0
 15 16  1  6  0  0  0
 15 25  1  0  0  0  0
 15 17  1  0  0  0  0
 18 17  1  0  0  0  0
 18 19  1  0  0  0  0
 19 24  1  0  0  0  0
 20 19  2  0  0  0  0
 20 21  1  0  0  0  0
 21 22  2  0  0  0  0
 22 23  1  0  0  0  0
 22 68  1  0  0  0  0
 23 69  1  0  0  0  0
 24 70  1  0  0  0  0
 24 23  2  0  0  0  0
 25 27  1  0  0  0  0
 26 25  2  0  0  0  0
 27 71  1  0  0  0  0
 27 28  1  0  0  0  0
 28 30  1  0  0  0  0
 28 37  1  0  0  0  0
 28 29  1  6  0  0  0
 30 31  2  0  0  0  0
 31 32  1  0  0  0  0
 31 36  1  0  0  0  0
 32 72  1  0  0  0  0
 33 73  1  0  0  0  0
 33 32  2  0  0  0  0
 34 33  1  0  0  0  0
 35 34  2  0  0  0  0
 35 30  1  0  0  0  0
 36 76  1  0  0  0  0
 36 77  1  0  0  0  0
 37 38  1  1  0  0  0
 37 39  1  0  0  0  0
 37 36  1  0  0  0  0
 40 79  1  0  0  0  0
 40 13  1  0  0  0  0
 42 43  2  0  0  0  0
 42  9  1  0  0  0  0
 44 42  1  0  0  0  0
 45 54  1  0  0  0  0
 45 46  1  1  0  0  0
 45 44  1  0  0  0  0
 47 52  1  0  0  0  0
 47 45  1  0  0  0  0
 48 53  1  0  0  0  0
 48 47  2  0  0  0  0
 49 50  2  0  0  0  0
 49 48  1  0  0  0  0
 50 51  1  0  0  0  0
 51 84  1  0  0  0  0
 51 52  2  0  0  0  0
 52 85  1  0  0  0  0
 53 54  1  0  0  0  0
 54 55  1  1  0  0  0
 54 56  1  0  0  0  0
 56 88  1  0  0  0  0
 57  2  1  0  0  0  0
 62  7  1  0  0  0  0
 64 18  1  0  0  0  0
 65 18  1  0  0  0  0
 66 20  1  0  0  0  0
 67 21  1  0  0  0  0
 74 34  1  0  0  0  0
 75 35  1  0  0  0  0
 78 39  1  0  0  0  0
 80 41  1  0  0  0  0
 81 44  1  0  0  0  0
 82 49  1  0  0  0  0
 83 50  1  0  0  0  0
 86 53  1  0  0  0  0
 87 53  1  0  0  0  0
M  END
$$$$
