
     RDKit          3D

 88 93  0  0  0  0  0  0  0  0999 V2000
    0.1387    0.2125   -0.5464 C   0  0  0  0  0  0  0  0  0  0  0  0
    1.0690    0.4693   -1.5655 C   0  0  0  0  0  0  0  0  0  0  0  0
    2.4333    0.5445   -1.2791 C   0  0  0  0  0  0  0  0  0  0  0  0
    2.8857    0.3632    0.0331 C   0  0  0  0  0  0  0  0  0  0  0  0
    1.9697    0.0839    1.0502 C   0  0  0  0  0  0  0  0  0  0  0  0
    0.6040    0.0025    0.7580 C   0  0  0  0  0  0  0  0  0  0  0  0
   -1.3411    0.1619   -0.8574 C   0  0  0  0  0  0  0  0  0  0  0  0
   -1.6891   -0.7821   -1.8614 O   0  0  0  0  0  0  0  0  0  0  0  0
   -1.2680   -2.1047   -1.6446 C   0  0  2  0  0  0  0  0  0  0  0  0
   -0.1883   -2.2118   -1.8416 H   0  0  0  0  0  0  0  0  0  0  0  0
   -2.0515   -2.9873   -2.6259 C   0  0  1  0  0  0  0  0  0  0  0  0
   -1.8887   -2.5817   -3.6403 H   0  0  0  0  0  0  0  0  0  0  0  0
   -1.5905   -4.4569   -2.6135 C   0  0  2  0  0  0  0  0  0  0  0  0
   -1.6014   -4.8392   -1.5768 H   0  0  0  0  0  0  0  0  0  0  0  0
   -0.1635   -4.6493   -3.1462 C   0  0  1  0  0  0  0  0  0  0  0  0
    0.0586   -3.9153   -3.9416 H   0  0  0  0  0  0  0  0  0  0  0  0
    0.7161   -4.4821   -2.0424 O   0  0  0  0  0  0  0  0  0  0  0  0
    2.0904   -4.4199   -2.4221 C   0  0  0  0  0  0  0  0  0  0  0  0
    2.9475   -4.3426   -1.1907 C   0  0  0  0  0  0  0  0  0  0  0  0
    3.6372   -5.4723   -0.7320 C   0  0  0  0  0  0  0  0  0  0  0  0
    4.4435   -5.3978    0.4070 C   0  0  0  0  0  0  0  0  0  0  0  0
    4.5547   -4.1933    1.1059 C   0  0  0  0  0  0  0  0  0  0  0  0
    3.8561   -3.0652    0.6653 C   0  0  0  0  0  0  0  0  0  0  0  0
    3.0587   -3.1386   -0.4786 C   0  0  0  0  0  0  0  0  0  0  0  0
   -0.0133   -6.0302   -3.7994 C   0  0  0  0  0  0  0  0  0  0  0  0
    0.0335   -6.1642   -5.0081 O   0  0  0  0  0  0  0  0  0  0  0  0
    0.0297   -7.0599   -2.9110 N   0  0  0  0  0  0  0  0  0  0  0  0
   -0.1971   -8.4168   -3.3566 C   0  0  1  0  0  0  0  0  0  0  0  0
    0.3143   -8.5229   -4.3270 H   0  0  0  0  0  0  0  0  0  0  0  0
    0.2839   -9.4514   -2.3715 C   0  0  0  0  0  0  0  0  0  0  0  0
   -0.6610  -10.4766   -2.2352 C   0  0  0  0  0  0  0  0  0  0  0  0
   -0.4204  -11.5336   -1.3563 C   0  0  0  0  0  0  0  0  0  0  0  0
    0.7725  -11.5538   -0.6220 C   0  0  0  0  0  0  0  0  0  0  0  0
    1.7174  -10.5303   -0.7690 C   0  0  0  0  0  0  0  0  0  0  0  0
    1.4744   -9.4690   -1.6476 C   0  0  0  0  0  0  0  0  0  0  0  0
   -1.8436  -10.2323   -3.1428 C   0  0  0  0  0  0  0  0  0  0  0  0
   -1.7245   -8.7491   -3.5479 C   0  0  1  0  0  0  0  0  0  0  0  0
   -2.0138   -8.5833   -4.5999 H   0  0  0  0  0  0  0  0  0  0  0  0
   -2.5328   -7.9866   -2.6867 O   0  0  0  0  0  0  0  0  0  0  0  0
   -2.5012   -5.2054   -3.3978 O   0  0  0  0  0  0  0  0  0  0  0  0
   -3.4401   -2.9644   -2.3747 O   0  0  0  0  0  0  0  0  0  0  0  0
   -1.5802   -2.5979   -0.2270 C   0  0  0  0  0  0  0  0  0  0  0  0
   -2.6860   -2.3818    0.2655 O   0  0  0  0  0  0  0  0  0  0  0  0
   -0.5992   -3.3100    0.3737 N   0  0  0  0  0  0  0  0  0  0  0  0
   -0.8586   -4.0691    1.5970 C   0  0  1  0  0  0  0  0  0  0  0  0
   -1.7666   -3.6352    2.0328 H   0  0  0  0  0  0  0  0  0  0  0  0
   -0.9678   -5.5433    1.2858 C   0  0  0  0  0  0  0  0  0  0  0  0
    0.2334   -6.1979    1.5986 C   0  0  0  0  0  0  0  0  0  0  0  0
    0.3795   -7.5548    1.3030 C   0  0  0  0  0  0  0  0  0  0  0  0
   -0.6748   -8.2364    0.6841 C   0  0  0  0  0  0  0  0  0  0  0  0
   -1.8661   -7.5741    0.3593 C   0  0  0  0  0  0  0  0  0  0  0  0
   -2.0189   -6.2169    0.6623 C   0  0  0  0  0  0  0  0  0  0  0  0
    1.2279   -5.2285    2.1866 C   0  0  0  0  0  0  0  0  0  0  0  0
    0.3574   -4.0044    2.5677 C   0  0  1  0  0  0  0  0  0  0  0  0
   -0.0350   -4.1611    3.5850 H   0  0  0  0  0  0  0  0  0  0  0  0
    1.0168   -2.7662    2.5870 O   0  0  0  0  0  0  0  0  0  0  0  0
    0.7120    0.6155   -2.5885 H   0  0  0  0  0  0  0  0  0  0  0  0
    3.1480    0.7524   -2.0791 H   0  0  0  0  0  0  0  0  0  0  0  0
    3.9530    0.4290    0.2569 H   0  0  0  0  0  0  0  0  0  0  0  0
    2.3110   -0.0818    2.0746 H   0  0  0  0  0  0  0  0  0  0  0  0
   -0.1044   -0.2374    1.5543 H   0  0  0  0  0  0  0  0  0  0  0  0
   -1.6749    1.1297   -1.2617 H   0  0  0  0  0  0  0  0  0  0  0  0
   -1.9128   -0.0327    0.0647 H   0  0  0  0  0  0  0  0  0  0  0  0
    2.2461   -3.5316   -3.0627 H   0  0  0  0  0  0  0  0  0  0  0  0
    2.3533   -5.3116   -3.0155 H   0  0  0  0  0  0  0  0  0  0  0  0
    3.5455   -6.4150   -1.2774 H   0  0  0  0  0  0  0  0  0  0  0  0
    4.9812   -6.2838    0.7522 H   0  0  0  0  0  0  0  0  0  0  0  0
    5.1795   -4.1340    1.9998 H   0  0  0  0  0  0  0  0  0  0  0  0
    3.9312   -2.1255    1.2135 H   0  0  0  0  0  0  0  0  0  0  0  0
    2.5331   -2.2476   -0.8299 H   0  0  0  0  0  0  0  0  0  0  0  0
   -0.1398   -6.8605   -1.9288 H   0  0  0  0  0  0  0  0  0  0  0  0
   -1.1555  -12.3334   -1.2341 H   0  0  0  0  0  0  0  0  0  0  0  0
    0.9661  -12.3735    0.0743 H   0  0  0  0  0  0  0  0  0  0  0  0
    2.6428  -10.5583   -0.1886 H   0  0  0  0  0  0  0  0  0  0  0  0
    2.1953   -8.6548   -1.7532 H   0  0  0  0  0  0  0  0  0  0  0  0
   -1.7827  -10.8832   -4.0323 H   0  0  0  0  0  0  0  0  0  0  0  0
   -2.8159  -10.4194   -2.6631 H   0  0  0  0  0  0  0  0  0  0  0  0
   -2.5452   -7.0581   -2.9914 H   0  0  0  0  0  0  0  0  0  0  0  0
   -3.3667   -4.7862   -3.2345 H   0  0  0  0  0  0  0  0  0  0  0  0
   -3.5782   -2.6845   -1.4481 H   0  0  0  0  0  0  0  0  0  0  0  0
    0.1379   -3.6514   -0.2467 H   0  0  0  0  0  0  0  0  0  0  0  0
    1.3090   -8.0809    1.5344 H   0  0  0  0  0  0  0  0  0  0  0  0
   -0.5643   -9.2932    0.4396 H   0  0  0  0  0  0  0  0  0  0  0  0
   -2.6572   -8.1096   -0.1648 H   0  0  0  0  0  0  0  0  0  0  0  0
   -2.9425   -5.6894    0.4102 H   0  0  0  0  0  0  0  0  0  0  0  0
    1.7906   -5.6286    3.0435 H   0  0  0  0  0  0  0  0  0  0  0  0
    1.9704   -4.9372    1.4292 H   0  0  0  0  0  0  0  0  0  0  0  0
    1.1688   -2.4937    1.6702 H   0  0  0  0  0  0  0  0  0  0  0  0
  1  2  2  0
  1  6  1  0
  1  7  1  0
  2  3  1  0
  2 57  1  0
  3  4  2  0
  3 58  1  0
  4  5  1  0
  4 59  1  0
  5  6  2  0
  5 60  1  0
  6 61  1  0
  7  8  1  0
  7 62  1  0
  7 63  1  0
  8  9  1  0
  9 10  1  6
  9 11  1  0
  9 42  1  0
 11 12  1  6
 11 13  1  0
 11 41  1  0
 13 14  1  1
 13 15  1  0
 13 40  1  0
 15 16  1  6
 15 17  1  0
 15 25  1  0
 17 18  1  0
 18 19  1  0
 18 64  1  0
 18 65  1  0
 19 20  2  0
 19 24  1  0
 20 21  1  0
 20 66  1  0
 21 22  2  0
 21 67  1  0
 22 23  1  0
 22 68  1  0
 23 24  2  0
 23 69  1  0
 24 70  1  0
 25 26  2  0
 25 27  1  0
 27 28  1  0
 27 71  1  0
 28 29  1  6
 28 30  1  0
 28 37  1  0
 30 31  1  0
 30 35  2  0
 31 32  2  0
 31 36  1  0
 32 33  1  0
 32 72  1  0
 33 34  2  0
 33 73  1  0
 34 35  1  0
 34 74  1  0
 35 75  1  0
 36 37  1  0
 36 76  1  0
 36 77  1  0
 37 38  1  6
 37 39  1  0
 39 78  1  0
 40 79  1  0
 41 80  1  0
 42 43  2  0
 42 44  1  0
 44 45  1  0
 44 81  1  0
 45 46  1  1
 45 47  1  0
 45 54  1  0
 47 48  1  0
 47 52  2  0
 48 49  2  0
 48 53  1  0
 49 50  1  0
 49 82  1  0
 50 51  2  0
 50 83  1  0
 51 52  1  0
 51 84  1  0
 52 85  1  0
 53 54  1  0
 53 86  1  0
 53 87  1  0
 54 55  1  1
 54 56  1  0
 56 88  1  0
M  END

