
     RDKit          3D

 88 93  0  0  0  0  0  0  0  0999 V2000
   -0.0698   -0.4276    0.4858 C   0  0  0  0  0  0  0  0  0  0  0  0
    1.2662   -0.0141    0.5966 C   0  0  0  0  0  0  0  0  0  0  0  0
    2.0975   -0.5649    1.5724 C   0  0  0  0  0  0  0  0  0  0  0  0
    1.5975   -1.5347    2.4488 C   0  0  0  0  0  0  0  0  0  0  0  0
    0.2681   -1.9508    2.3439 C   0  0  0  0  0  0  0  0  0  0  0  0
   -0.5638   -1.4024    1.3633 C   0  0  0  0  0  0  0  0  0  0  0  0
   -0.9489    0.1234   -0.6058 C   0  0  0  0  0  0  0  0  0  0  0  0
   -0.5680   -0.3118   -1.9222 O   0  0  0  0  0  0  0  0  0  0  0  0
   -0.4285   -1.7147   -2.0885 C   0  0  2  0  0  0  0  0  0  0  0  0
    0.1540   -2.1471   -1.2604 H   0  0  0  0  0  0  0  0  0  0  0  0
    0.4287   -1.9583   -3.3343 C   0  0  1  0  0  0  0  0  0  0  0  0
    0.3859   -3.0262   -3.5863 H   0  0  0  0  0  0  0  0  0  0  0  0
    0.1000   -1.1181   -4.5878 C   0  0  2  0  0  0  0  0  0  0  0  0
    0.0397   -0.0575   -4.2850 H   0  0  0  0  0  0  0  0  0  0  0  0
   -1.2215   -1.4314   -5.3001 C   0  0  1  0  0  0  0  0  0  0  0  0
   -2.0219   -1.4725   -4.5509 H   0  0  0  0  0  0  0  0  0  0  0  0
   -1.4577   -0.4002   -6.2397 O   0  0  0  0  0  0  0  0  0  0  0  0
   -2.8087    0.0396   -6.3359 C   0  0  0  0  0  0  0  0  0  0  0  0
   -3.7371   -0.9715   -6.9653 C   0  0  0  0  0  0  0  0  0  0  0  0
   -4.4289   -1.8996   -6.1760 C   0  0  0  0  0  0  0  0  0  0  0  0
   -5.2323   -2.8806   -6.7611 C   0  0  0  0  0  0  0  0  0  0  0  0
   -5.3682   -2.9282   -8.1510 C   0  0  0  0  0  0  0  0  0  0  0  0
   -4.6917   -1.9996   -8.9490 C   0  0  0  0  0  0  0  0  0  0  0  0
   -3.8743   -1.0345   -8.3591 C   0  0  0  0  0  0  0  0  0  0  0  0
   -1.1179   -2.8199   -5.9346 C   0  0  0  0  0  0  0  0  0  0  0  0
   -1.1327   -3.8189   -5.2227 O   0  0  0  0  0  0  0  0  0  0  0  0
   -0.9200   -2.8154   -7.2671 N   0  0  0  0  0  0  0  0  0  0  0  0
   -0.2561   -3.9014   -7.9508 C   0  0  1  0  0  0  0  0  0  0  0  0
   -0.4280   -4.8082   -7.3497 H   0  0  0  0  0  0  0  0  0  0  0  0
   -0.7034   -4.0952   -9.3790 C   0  0  0  0  0  0  0  0  0  0  0  0
    0.4003   -4.3046  -10.2156 C   0  0  0  0  0  0  0  0  0  0  0  0
    0.2100   -4.5127  -11.5821 C   0  0  0  0  0  0  0  0  0  0  0  0
   -1.0917   -4.5042  -12.0983 C   0  0  0  0  0  0  0  0  0  0  0  0
   -2.1909   -4.2943  -11.2561 C   0  0  0  0  0  0  0  0  0  0  0  0
   -2.0014   -4.0887   -9.8848 C   0  0  0  0  0  0  0  0  0  0  0  0
    1.6827   -4.2795   -9.4166 C   0  0  0  0  0  0  0  0  0  0  0  0
    1.2863   -3.6184   -8.0829 C   0  0  1  0  0  0  0  0  0  0  0  0
    1.8281   -4.0545   -7.2243 H   0  0  0  0  0  0  0  0  0  0  0  0
    1.5337   -2.2364   -8.1796 O   0  0  0  0  0  0  0  0  0  0  0  0
    1.1678   -1.3005   -5.5087 O   0  0  0  0  0  0  0  0  0  0  0  0
    1.7885   -1.6653   -3.0030 O   0  0  0  0  0  0  0  0  0  0  0  0
   -1.7627   -2.4680   -2.0041 C   0  0  0  0  0  0  0  0  0  0  0  0
   -1.7978   -3.6115   -1.5790 O   0  0  0  0  0  0  0  0  0  0  0  0
   -2.8565   -1.7472   -2.3708 N   0  0  0  0  0  0  0  0  0  0  0  0
   -4.2264   -2.1822   -2.1759 C   0  0  1  0  0  0  0  0  0  0  0  0
   -4.8547   -1.4713   -2.7424 H   0  0  0  0  0  0  0  0  0  0  0  0
   -4.5676   -3.5896   -2.6322 C   0  0  0  0  0  0  0  0  0  0  0  0
   -5.5854   -4.1032   -1.8166 C   0  0  0  0  0  0  0  0  0  0  0  0
   -6.1174   -5.3671   -2.0722 C   0  0  0  0  0  0  0  0  0  0  0  0
   -5.6114   -6.1119   -3.1440 C   0  0  0  0  0  0  0  0  0  0  0  0
   -4.5745   -5.6029   -3.9358 C   0  0  0  0  0  0  0  0  0  0  0  0
   -4.0386   -4.3352   -3.6839 C   0  0  0  0  0  0  0  0  0  0  0  0
   -5.9320   -3.1206   -0.7216 C   0  0  0  0  0  0  0  0  0  0  0  0
   -4.7146   -2.1677   -0.6916 C   0  0  1  0  0  0  0  0  0  0  0  0
   -4.9968   -1.1527   -0.3698 H   0  0  0  0  0  0  0  0  0  0  0  0
   -3.7058   -2.5929    0.1946 O   0  0  0  0  0  0  0  0  0  0  0  0
    1.6534    0.7486   -0.0856 H   0  0  0  0  0  0  0  0  0  0  0  0
    3.1364   -0.2367    1.6546 H   0  0  0  0  0  0  0  0  0  0  0  0
    2.2479   -1.9667    3.2131 H   0  0  0  0  0  0  0  0  0  0  0  0
   -0.1230   -2.7122    3.0226 H   0  0  0  0  0  0  0  0  0  0  0  0
   -1.5995   -1.7396    1.2611 H   0  0  0  0  0  0  0  0  0  0  0  0
   -0.8857    1.2203   -0.6529 H   0  0  0  0  0  0  0  0  0  0  0  0
   -1.9967   -0.1574   -0.4050 H   0  0  0  0  0  0  0  0  0  0  0  0
   -2.7700    0.9552   -6.9433 H   0  0  0  0  0  0  0  0  0  0  0  0
   -3.1785    0.3153   -5.3296 H   0  0  0  0  0  0  0  0  0  0  0  0
   -4.3348   -1.8655   -5.0892 H   0  0  0  0  0  0  0  0  0  0  0  0
   -5.7446   -3.6067   -6.1266 H   0  0  0  0  0  0  0  0  0  0  0  0
   -6.0002   -3.6901   -8.6135 H   0  0  0  0  0  0  0  0  0  0  0  0
   -4.7909   -2.0357  -10.0363 H   0  0  0  0  0  0  0  0  0  0  0  0
   -3.3324   -0.3220   -8.9869 H   0  0  0  0  0  0  0  0  0  0  0  0
   -0.8358   -1.8960   -7.6918 H   0  0  0  0  0  0  0  0  0  0  0  0
    1.0648   -4.6716  -12.2449 H   0  0  0  0  0  0  0  0  0  0  0  0
   -1.2508   -4.6588  -13.1686 H   0  0  0  0  0  0  0  0  0  0  0  0
   -3.2015   -4.2893  -11.6729 H   0  0  0  0  0  0  0  0  0  0  0  0
   -2.8488   -3.9150   -9.2203 H   0  0  0  0  0  0  0  0  0  0  0  0
    2.0519   -5.3060   -9.2460 H   0  0  0  0  0  0  0  0  0  0  0  0
    2.4913   -3.7092   -9.8976 H   0  0  0  0  0  0  0  0  0  0  0  0
    1.4078   -1.8428   -7.2960 H   0  0  0  0  0  0  0  0  0  0  0  0
    1.9627   -1.3886   -4.9529 H   0  0  0  0  0  0  0  0  0  0  0  0
    1.7867   -0.8043   -2.5558 H   0  0  0  0  0  0  0  0  0  0  0  0
   -2.6883   -0.7657   -2.5610 H   0  0  0  0  0  0  0  0  0  0  0  0
   -6.9077   -5.7765   -1.4374 H   0  0  0  0  0  0  0  0  0  0  0  0
   -6.0135   -7.1070   -3.3502 H   0  0  0  0  0  0  0  0  0  0  0  0
   -4.1609   -6.2052   -4.7479 H   0  0  0  0  0  0  0  0  0  0  0  0
   -3.1922   -3.9779   -4.2714 H   0  0  0  0  0  0  0  0  0  0  0  0
   -6.8508   -2.5587   -0.9716 H   0  0  0  0  0  0  0  0  0  0  0  0
   -6.0866   -3.5852    0.2637 H   0  0  0  0  0  0  0  0  0  0  0  0
   -3.2175   -3.3311   -0.2160 H   0  0  0  0  0  0  0  0  0  0  0  0
  1  2  2  0
  1  6  1  0
  1  7  1  0
  2  3  1  0
  2 57  1  0
  3  4  2  0
  3 58  1  0
  4  5  1  0
  4 59  1  0
  5  6  2  0
  5 60  1  0
  6 61  1  0
  7  8  1  0
  7 62  1  0
  7 63  1  0
  8  9  1  0
  9 10  1  1
  9 11  1  0
  9 42  1  0
 11 12  1  6
 11 13  1  0
 11 41  1  0
 13 14  1  1
 13 15  1  0
 13 40  1  0
 15 16  1  1
 15 17  1  0
 15 25  1  0
 17 18  1  0
 18 19  1  0
 18 64  1  0
 18 65  1  0
 19 20  2  0
 19 24  1  0
 20 21  1  0
 20 66  1  0
 21 22  2  0
 21 67  1  0
 22 23  1  0
 22 68  1  0
 23 24  2  0
 23 69  1  0
 24 70  1  0
 25 26  2  0
 25 27  1  0
 27 28  1  0
 27 71  1  0
 28 29  1  1
 28 30  1  0
 28 37  1  0
 30 31  1  0
 30 35  2  0
 31 32  2  0
 31 36  1  0
 32 33  1  0
 32 72  1  0
 33 34  2  0
 33 73  1  0
 34 35  1  0
 34 74  1  0
 35 75  1  0
 36 37  1  0
 36 76  1  0
 36 77  1  0
 37 38  1  1
 37 39  1  0
 39 78  1  0
 40 79  1  0
 41 80  1  0
 42 43  2  0
 42 44  1  0
 44 45  1  0
 44 81  1  0
 45 46  1  6
 45 47  1  0
 45 54  1  0
 47 48  1  0
 47 52  2  0
 48 49  2  0
 48 53  1  0
 49 50  1  0
 49 82  1  0
 50 51  2  0
 50 83  1  0
 51 52  1  0
 51 84  1  0
 52 85  1  0
 53 54  1  0
 53 86  1  0
 53 87  1  0
 54 55  1  1
 54 56  1  0
 56 88  1  0
M  END

