88
rmsd238.gzmat
C          0.00000        0.00000        0.00000
C          1.39630        0.00000        0.00000
C          2.09470        0.00000        1.20390
C          1.39840        0.00250        2.41190
C          0.00460        0.00130        2.41160
C         -0.69790       -0.00480        1.20740
C         -0.72740       -0.00980       -1.30950
O         -0.12830       -0.90700       -2.23740
C         -0.12930       -2.25520       -1.82180
H          0.29630       -2.35210       -0.79430
C          0.77280       -2.98030       -2.85220
H          0.26560       -3.04120       -3.84370
C          2.14240       -2.27170       -2.96070
H          1.98770       -1.19300       -3.23340
C          3.05410       -2.95150       -4.00790
H          2.44460       -3.31470       -4.87980
O          3.91720       -2.04960       -4.64630
C          4.83740       -1.34930       -3.79870
C          5.84840       -0.78710       -4.75300
C          5.41700        0.00250       -5.82040
C          6.34870        0.56020       -6.69380
C          7.71010        0.32970       -6.50280
C          8.13820       -0.47290       -5.44600
C          7.20970       -1.03920       -4.57480
C          3.85000       -4.12260       -3.42110
O          3.51490       -4.70140       -2.38630
N          4.93080       -4.54630       -4.12910
C          5.72300       -5.68720       -3.66680
H          5.04840       -6.42060       -3.15200
C          6.44390       -6.29560       -4.83980
C          7.83150       -6.09350       -4.75210
C          8.66880       -6.55690       -5.75340
C          8.10180       -7.22880       -6.84300
C          6.72710       -7.43980       -6.91870
C          5.88150       -6.97190       -5.90710
C          8.20840       -5.37060       -3.49880
C          6.89420       -5.26300       -2.68980
H          6.89690       -5.90860       -1.78830
O          6.77920       -3.92720       -2.27340
O          2.78330       -2.19420       -1.71930
O          0.86420       -4.30710       -2.39850
C         -1.55830       -2.80950       -1.87530
O         -2.51330       -2.13760       -2.22050
N         -1.70700       -4.09870       -1.41280
C         -3.01660       -4.73520       -1.35830
H         -2.87080       -5.76690       -0.94250
C         -3.99030       -3.97290       -0.49170
C         -5.16640       -3.65170       -1.18830
C         -6.19590       -2.97240       -0.55700
C         -6.03410       -2.61260        0.78540
C         -4.86370       -2.92470        1.47220
C         -3.82720       -3.61480        0.83470
C         -5.11010       -4.10500       -2.60940
C         -3.75800       -4.85030       -2.75730
H         -3.88160       -5.91440       -3.04120
O         -3.00630       -4.32890       -3.80670
H          1.93820       -0.02180       -0.94760
H          3.18250       -0.00410        1.19570
H          1.94170        0.00340        3.35360
H         -0.53610        0.00180        3.35500
H         -1.78740       -0.02070        1.21650
H         -0.62930        0.95630       -1.84690
H         -1.80660       -0.24310       -1.21360
H          5.28340       -2.03060       -3.05190
H          4.28040       -0.55640       -3.26030
H          4.35200        0.17760       -5.97120
H          6.01270        1.17760       -7.52420
H          8.44060        0.77430       -7.17640
H          9.20140       -0.65540       -5.30240
H          7.55290       -1.67250       -3.75630
H          5.29390       -4.01510       -4.91570
H          9.74370       -6.40710       -5.69880
H          8.74870       -7.59090       -7.64160
H          6.30450       -7.97110       -7.76980
H          4.80690       -7.13780       -5.96150
H          8.99290       -5.89670       -2.92710
H          8.61460       -4.35900       -3.71120
H          5.91170       -3.78540       -1.83150
H          2.91700       -3.09230       -1.33110
H          1.80000       -4.59790       -2.26270
H         -0.89110       -4.70390       -1.37750
H         -7.10660       -2.71140       -1.08880
H         -6.83340       -2.07940        1.29590
H         -4.75310       -2.62940        2.51280
H         -2.91350       -3.86060        1.37030
H         -5.96450       -4.74190       -2.88830
H         -5.13380       -3.23500       -3.29970
H         -2.92730       -3.34760       -3.73870
