
     RDKit          3D

 88 93  0  0  0  0  0  0  0  0999 V2000
   -0.0970    0.0760   -0.0342 C   0  0  0  0  0  0  0  0  0  0  0  0
    1.2526   -0.1573    0.2771 C   0  0  0  0  0  0  0  0  0  0  0  0
    1.6867   -0.1674    1.6039 C   0  0  0  0  0  0  0  0  0  0  0  0
    0.7712    0.0487    2.6412 C   0  0  0  0  0  0  0  0  0  0  0  0
   -0.5725    0.2838    2.3429 C   0  0  0  0  0  0  0  0  0  0  0  0
   -1.0028    0.2978    1.0121 C   0  0  0  0  0  0  0  0  0  0  0  0
   -0.5640    0.0427   -1.4673 C   0  0  0  0  0  0  0  0  0  0  0  0
   -0.6423   -1.3012   -1.9663 O   0  0  0  0  0  0  0  0  0  0  0  0
   -1.8089   -2.0407   -1.6674 C   0  0  2  0  0  0  0  0  0  0  0  0
   -2.1226   -1.8758   -0.6173 H   0  0  0  0  0  0  0  0  0  0  0  0
   -1.4450   -3.5376   -1.8348 C   0  0  1  0  0  0  0  0  0  0  0  0
   -1.1805   -3.6964   -2.8930 H   0  0  0  0  0  0  0  0  0  0  0  0
   -0.2160   -3.9669   -1.0030 C   0  0  2  0  0  0  0  0  0  0  0  0
   -0.1194   -5.0573   -1.1321 H   0  0  0  0  0  0  0  0  0  0  0  0
   -0.3774   -3.7245    0.5159 C   0  0  1  0  0  0  0  0  0  0  0  0
   -0.3946   -2.6409    0.7162 H   0  0  0  0  0  0  0  0  0  0  0  0
   -1.6329   -4.2708    0.9359 O   0  0  0  0  0  0  0  0  0  0  0  0
   -1.7108   -5.0665    2.1191 C   0  0  0  0  0  0  0  0  0  0  0  0
   -1.1792   -4.3715    3.3507 C   0  0  0  0  0  0  0  0  0  0  0  0
   -1.4811   -3.0266    3.6031 C   0  0  0  0  0  0  0  0  0  0  0  0
   -0.9777   -2.3907    4.7400 C   0  0  0  0  0  0  0  0  0  0  0  0
   -0.1705   -3.0940    5.6411 C   0  0  0  0  0  0  0  0  0  0  0  0
    0.1383   -4.4355    5.3914 C   0  0  0  0  0  0  0  0  0  0  0  0
   -0.3586   -5.0661    4.2489 C   0  0  0  0  0  0  0  0  0  0  0  0
    0.8427   -4.3493    1.2029 C   0  0  0  0  0  0  0  0  0  0  0  0
    1.0309   -5.5565    1.2035 O   0  0  0  0  0  0  0  0  0  0  0  0
    1.6753   -3.4379    1.7570 N   0  0  0  0  0  0  0  0  0  0  0  0
    3.0177   -3.7354    2.1963 C   0  0  1  0  0  0  0  0  0  0  0  0
    3.1641   -4.8170    2.0444 H   0  0  0  0  0  0  0  0  0  0  0  0
    4.0545   -2.9228    1.4505 C   0  0  0  0  0  0  0  0  0  0  0  0
    5.0405   -2.4598    2.3292 C   0  0  0  0  0  0  0  0  0  0  0  0
    6.0765   -1.6564    1.8521 C   0  0  0  0  0  0  0  0  0  0  0  0
    6.1057   -1.3239    0.4916 C   0  0  0  0  0  0  0  0  0  0  0  0
    5.1137   -1.7912   -0.3808 C   0  0  0  0  0  0  0  0  0  0  0  0
    4.0731   -2.5984    0.0947 C   0  0  0  0  0  0  0  0  0  0  0  0
    4.7634   -2.9542    3.7308 C   0  0  0  0  0  0  0  0  0  0  0  0
    3.2790   -3.3607    3.6921 C   0  0  1  0  0  0  0  0  0  0  0  0
    3.0577   -4.2147    4.3561 H   0  0  0  0  0  0  0  0  0  0  0  0
    2.5160   -2.2331    4.0729 O   0  0  0  0  0  0  0  0  0  0  0  0
    0.9718   -3.3662   -1.4575 O   0  0  0  0  0  0  0  0  0  0  0  0
   -2.5511   -4.3717   -1.5372 O   0  0  0  0  0  0  0  0  0  0  0  0
   -2.9748   -1.5637   -2.5663 C   0  0  0  0  0  0  0  0  0  0  0  0
   -2.9226   -0.4622   -3.1082 O   0  0  0  0  0  0  0  0  0  0  0  0
   -4.0354   -2.3940   -2.6343 N   0  0  0  0  0  0  0  0  0  0  0  0
   -5.2930   -2.0547   -3.2755 C   0  0  1  0  0  0  0  0  0  0  0  0
   -5.9949   -2.8613   -3.0013 H   0  0  0  0  0  0  0  0  0  0  0  0
   -5.8912   -0.7287   -2.8462 C   0  0  0  0  0  0  0  0  0  0  0  0
   -6.5633   -0.1338   -3.9205 C   0  0  0  0  0  0  0  0  0  0  0  0
   -7.2065    1.0924   -3.7475 C   0  0  0  0  0  0  0  0  0  0  0  0
   -7.1689    1.7114   -2.4926 C   0  0  0  0  0  0  0  0  0  0  0  0
   -6.4982    1.1084   -1.4209 C   0  0  0  0  0  0  0  0  0  0  0  0
   -5.8546   -0.1214   -1.5937 C   0  0  0  0  0  0  0  0  0  0  0  0
   -6.4647   -1.0090   -5.1469 C   0  0  0  0  0  0  0  0  0  0  0  0
   -5.2735   -1.9558   -4.8415 C   0  0  1  0  0  0  0  0  0  0  0  0
   -5.4293   -2.9488   -5.2933 H   0  0  0  0  0  0  0  0  0  0  0  0
   -4.0604   -1.4760   -5.3449 O   0  0  0  0  0  0  0  0  0  0  0  0
    1.9729   -0.3372   -0.5250 H   0  0  0  0  0  0  0  0  0  0  0  0
    2.7350   -0.3600    1.8383 H   0  0  0  0  0  0  0  0  0  0  0  0
    1.1190    0.0210    3.6750 H   0  0  0  0  0  0  0  0  0  0  0  0
   -1.2904    0.4623    3.1470 H   0  0  0  0  0  0  0  0  0  0  0  0
   -2.0531    0.4936    0.7789 H   0  0  0  0  0  0  0  0  0  0  0  0
    0.1597    0.5451   -2.1247 H   0  0  0  0  0  0  0  0  0  0  0  0
   -1.5342    0.5380   -1.5947 H   0  0  0  0  0  0  0  0  0  0  0  0
   -1.1841   -6.0197    1.9704 H   0  0  0  0  0  0  0  0  0  0  0  0
   -2.7873   -5.2718    2.2324 H   0  0  0  0  0  0  0  0  0  0  0  0
   -2.0965   -2.4716    2.8917 H   0  0  0  0  0  0  0  0  0  0  0  0
   -1.2135   -1.3409    4.9255 H   0  0  0  0  0  0  0  0  0  0  0  0
    0.2290   -2.5941    6.5260 H   0  0  0  0  0  0  0  0  0  0  0  0
    0.7803   -4.9866    6.0824 H   0  0  0  0  0  0  0  0  0  0  0  0
   -0.0839   -6.1005    4.0309 H   0  0  0  0  0  0  0  0  0  0  0  0
    1.4460   -2.4550    1.6505 H   0  0  0  0  0  0  0  0  0  0  0  0
    6.8484   -1.2802    2.5286 H   0  0  0  0  0  0  0  0  0  0  0  0
    6.9075   -0.6883    0.1077 H   0  0  0  0  0  0  0  0  0  0  0  0
    5.1515   -1.5201   -1.4388 H   0  0  0  0  0  0  0  0  0  0  0  0
    3.2800   -2.9554   -0.5681 H   0  0  0  0  0  0  0  0  0  0  0  0
    5.3954   -3.8280    3.9674 H   0  0  0  0  0  0  0  0  0  0  0  0
    4.9343   -2.1980    4.5113 H   0  0  0  0  0  0  0  0  0  0  0  0
    1.5861   -2.5007    4.1102 H   0  0  0  0  0  0  0  0  0  0  0  0
    0.7267   -2.4550   -1.7059 H   0  0  0  0  0  0  0  0  0  0  0  0
   -2.5235   -4.5090   -0.5678 H   0  0  0  0  0  0  0  0  0  0  0  0
   -3.8946   -3.3260   -2.2396 H   0  0  0  0  0  0  0  0  0  0  0  0
   -7.7266    1.5693   -4.5825 H   0  0  0  0  0  0  0  0  0  0  0  0
   -7.6624    2.6757   -2.3484 H   0  0  0  0  0  0  0  0  0  0  0  0
   -6.4737    1.6052   -0.4478 H   0  0  0  0  0  0  0  0  0  0  0  0
   -5.3207   -0.5946   -0.7652 H   0  0  0  0  0  0  0  0  0  0  0  0
   -7.3975   -1.5870   -5.2813 H   0  0  0  0  0  0  0  0  0  0  0  0
   -6.2808   -0.4555   -6.0797 H   0  0  0  0  0  0  0  0  0  0  0  0
   -3.7133   -0.7982   -4.7326 H   0  0  0  0  0  0  0  0  0  0  0  0
  1  2  2  0
  1  6  1  0
  1  7  1  0
  2  3  1  0
  2 57  1  0
  3  4  2  0
  3 58  1  0
  4  5  1  0
  4 59  1  0
  5  6  2  0
  5 60  1  0
  6 61  1  0
  7  8  1  0
  7 62  1  0
  7 63  1  0
  8  9  1  0
  9 10  1  1
  9 11  1  0
  9 42  1  0
 11 12  1  6
 11 13  1  0
 11 41  1  0
 13 14  1  1
 13 15  1  0
 13 40  1  0
 15 16  1  6
 15 17  1  0
 15 25  1  0
 17 18  1  0
 18 19  1  0
 18 64  1  0
 18 65  1  0
 19 20  2  0
 19 24  1  0
 20 21  1  0
 20 66  1  0
 21 22  2  0
 21 67  1  0
 22 23  1  0
 22 68  1  0
 23 24  2  0
 23 69  1  0
 24 70  1  0
 25 26  2  0
 25 27  1  0
 27 28  1  0
 27 71  1  0
 28 29  1  1
 28 30  1  0
 28 37  1  0
 30 31  1  0
 30 35  2  0
 31 32  2  0
 31 36  1  0
 32 33  1  0
 32 72  1  0
 33 34  2  0
 33 73  1  0
 34 35  1  0
 34 74  1  0
 35 75  1  0
 36 37  1  0
 36 76  1  0
 36 77  1  0
 37 38  1  1
 37 39  1  0
 39 78  1  0
 40 79  1  0
 41 80  1  0
 42 43  2  0
 42 44  1  0
 44 45  1  0
 44 81  1  0
 45 46  1  6
 45 47  1  0
 45 54  1  0
 47 48  1  0
 47 52  2  0
 48 49  2  0
 48 53  1  0
 49 50  1  0
 49 82  1  0
 50 51  2  0
 50 83  1  0
 51 52  1  0
 51 84  1  0
 52 85  1  0
 53 54  1  0
 53 86  1  0
 53 87  1  0
 54 55  1  6
 54 56  1  0
 56 88  1  0
M  END

