88
rmsd149.gzmat
C          0.00000        0.00000        0.00000
C          1.39630        0.00000        0.00000
C          2.09280        0.00000        1.20580
C          1.39640        0.00170        2.41380
C          0.00310        0.00400        2.41310
C         -0.69690        0.00820        1.20800
C         -0.74750       -0.03130       -1.30010
O         -0.13520        0.89920       -2.18860
C         -0.88660        2.02570       -2.54750
H         -0.19410        2.52730       -3.27290
C         -1.16720        2.94850       -1.33770
H         -1.93360        2.50760       -0.65860
C          0.13610        3.26480       -0.57530
H          0.81180        2.37970       -0.52590
C         -0.19720        3.81290        0.83320
H         -0.80950        4.74750        0.74830
O         -0.89690        2.78940        1.49850
C         -1.67140        3.22180        2.61490
C         -2.57510        4.36800        2.28860
C         -3.45320        4.27580        1.20790
C         -4.25040        5.36570        0.86710
C         -4.17770        6.54210        1.61180
C         -3.31200        6.62740        2.70140
C         -2.50780        5.54170        3.03940
C          1.13020        4.14310        1.51030
O          1.77250        5.09560        1.07600
N          1.55690        3.34630        2.53000
C          2.84260        3.53410        3.19090
H          3.01540        2.64740        3.85760
C          4.00690        3.68240        2.24350
C          4.86450        4.71550        2.65930
C          5.99920        5.02380        1.92900
C          6.26990        4.28500        0.77170
C          5.42030        3.26070        0.36300
C          4.27330        2.95020        1.10210
C          4.36180        5.38010        3.89890
C          2.91310        4.84830        4.07680
H          2.63610        4.65680        5.12920
O          2.00090        5.81380        3.66680
O          0.78940        4.26550       -1.32300
O         -1.76090        4.13380       -1.81300
C         -2.18930        1.61890       -3.24450
O         -2.54060        0.46320       -3.35910
N         -2.92270        2.65590       -3.80120
C         -4.27140        2.37580       -4.28860
H         -4.33540        1.30500       -4.62170
C         -5.31720        2.67470       -3.24320
C         -6.21060        3.66730       -3.67450
C         -7.23070        4.10140       -2.84440
C         -7.34890        3.52780       -1.57370
C         -6.46700        2.53570       -1.15220
C         -5.43840        2.09690       -1.99260
C         -5.89110        4.13990       -5.05420
C         -4.64340        3.33200       -5.48780
H         -4.80800        2.75110       -6.41550
O         -3.65100        4.29330       -5.74720
H          1.93460        0.00120       -0.94880
H          3.18190       -0.01300        1.20830
H          1.94170       -0.01240        3.35370
H         -0.54270       -0.00290        3.35260
H         -1.78510        0.02220        1.21330
H         -1.83160        0.13250       -1.17920
H         -0.61910       -1.00310       -1.82460
H         -0.98310        3.44930        3.45080
H         -2.23430        2.29570        2.85250
H         -3.50110        3.36050        0.61930
H         -4.92040        5.30040        0.01040
H         -4.79410        7.39600        1.33930
H         -3.25200        7.54460        3.28470
H         -1.82040        5.61990        3.88060
H          1.01610        2.52660        2.79170
H          6.66160        5.82750        2.23800
H          7.15240        4.52240        0.18070
H          5.63990        2.70290       -0.54550
H          3.59850        2.16430        0.77150
H          4.99120        5.15220        4.77550
H          4.35100        6.48370        3.80810
H          2.07430        5.97580        2.69120
H          1.36140        4.83380       -0.74210
H         -1.05690        4.80750       -2.00420
H         -2.75790        3.60680       -3.45870
H         -7.92260        4.87400       -3.16630
H         -8.14320        3.86320       -0.90920
H         -6.57960        2.09520       -0.16400
H         -4.74930        1.31690       -1.67380
H         -6.73170        3.99970       -5.75450
H         -5.66030        5.22680       -5.07090
H         -2.76770        3.87300       -5.82120
