42
rmsd27.gzmat
N          0.00000        0.00000        0.00000
C          1.46380        0.00000        0.00000
C         -0.66000        0.00000       -1.30660
C         -0.70970       -0.02810        1.15110
C         -0.05280       -0.07990        2.42110
C         -0.78200       -0.13190        3.58260
C         -2.19250       -0.11230        3.56360
C         -2.84640       -0.03320        2.31420
C         -2.13880       -0.00290        1.13840
C         -2.97570       -0.17360        4.77120
N         -2.55230       -0.95880        5.77970
H         -3.03080       -0.99760        6.66480
H         -1.73680       -1.54430        5.69320
C         -4.18790        0.58160        4.92870
C         -4.30150        1.84820        4.31090
C         -5.42220        2.62360        4.46830
C         -6.51650        2.16510        5.26590
N         -7.60800        2.93810        5.46170
C         -8.71880        2.49950        6.30830
C         -7.76080        4.22840        4.78680
C         -6.41420        0.86490        5.85630
C         -5.28020        0.11100        5.69140
H          1.86080       -0.95040        0.40620
H          1.86140        0.83890        0.60370
H          1.86620        0.11890       -1.02270
H         -1.33630       -0.87060       -1.41050
H          0.07570       -0.05930       -2.12950
H         -1.24750        0.92670       -1.45330
H          1.03320       -0.07860        2.47010
H         -0.25500       -0.15880        4.54050
H         -3.94230       -0.01620        2.28870
H         -2.67420        0.04030        0.19320
H         -3.46310        2.22260        3.71110
H         -5.46900        3.59830        3.98920
H         -8.35840        2.19980        7.31190
H         -9.25400        1.64400        5.85240
H         -9.45290        3.31210        6.46090
H         -6.95870        4.93060        5.08770
H         -8.72600        4.70400        5.03880
H         -7.73070        4.10880        3.68640
H         -7.24720        0.46260        6.42780
H         -5.23780       -0.88850        6.13370
