rmsd33.gzmat
 OpenBabel08211713363D

 42 43  0  0  0  0  0  0  0  0999 V2000
    0.0000    0.0000    0.0000 N   0  0  0  0  0  0  0  0  0  0  0  0
    1.4639    0.0000    0.0000 C   0  0  0  0  0  0  0  0  0  0  0  0
   -0.6610    0.0000   -1.3062 C   0  0  0  0  0  0  0  0  0  0  0  0
   -0.7083   -0.0010    1.1509 C   0  0  0  0  0  0  0  0  0  0  0  0
   -2.1377    0.0357    1.1402 C   0  0  0  0  0  0  0  0  0  0  0  0
   -2.8425    0.0643    2.3169 C   0  0  0  0  0  0  0  0  0  0  0  0
   -2.1867    0.0687    3.5699 C   0  0  0  0  0  0  0  0  0  0  0  0
   -0.7753    0.0063    3.5845 C   0  0  0  0  0  0  0  0  0  0  0  0
   -0.0500   -0.0361    2.4216 C   0  0  0  0  0  0  0  0  0  0  0  0
   -2.9646    0.1512    4.7740 C   0  0  0  0  0  0  0  0  0  0  0  0
   -2.4556    0.7854    5.8475 N   0  0  0  0  0  0  0  0  0  0  0  0
   -2.9474    0.8221    6.7263 H   0  0  0  0  0  0  0  0  0  0  0  0
   -1.5629    1.2509    5.8213 H   0  0  0  0  0  0  0  0  0  0  0  0
   -4.2838   -0.4207    4.8738 C   0  0  0  0  0  0  0  0  0  0  0  0
   -4.5554   -1.6634    4.2612 C   0  0  0  0  0  0  0  0  0  0  0  0
   -5.7895   -2.2559    4.3673 C   0  0  0  0  0  0  0  0  0  0  0  0
   -6.8429   -1.6155    5.0909 C   0  0  0  0  0  0  0  0  0  0  0  0
   -8.0610   -2.1916    5.2099 N   0  0  0  0  0  0  0  0  0  0  0  0
   -9.1308   -1.5715    5.9934 C   0  0  0  0  0  0  0  0  0  0  0  0
   -8.3619   -3.4819    4.5877 C   0  0  0  0  0  0  0  0  0  0  0  0
   -6.5701   -0.3415    5.6824 C   0  0  0  0  0  0  0  0  0  0  0  0
   -5.3238    0.2231    5.5768 C   0  0  0  0  0  0  0  0  0  0  0  0
    1.8599   -0.9488    0.4104 H   0  0  0  0  0  0  0  0  0  0  0  0
    1.8613    0.8414    0.6004 H   0  0  0  0  0  0  0  0  0  0  0  0
    1.8675    0.1133   -1.0226 H   0  0  0  0  0  0  0  0  0  0  0  0
   -1.3294   -0.8760   -1.4139 H   0  0  0  0  0  0  0  0  0  0  0  0
    0.0738   -0.0481   -2.1306 H   0  0  0  0  0  0  0  0  0  0  0  0
   -1.2574    0.9225   -1.4478 H   0  0  0  0  0  0  0  0  0  0  0  0
   -2.6746    0.0502    0.1952 H   0  0  0  0  0  0  0  0  0  0  0  0
   -3.9385    0.1077    2.2914 H   0  0  0  0  0  0  0  0  0  0  0  0
   -0.2459   -0.0396    4.5408 H   0  0  0  0  0  0  0  0  0  0  0  0
    1.0339   -0.1074    2.4680 H   0  0  0  0  0  0  0  0  0  0  0  0
   -3.7540   -2.1700    3.7103 H   0  0  0  0  0  0  0  0  0  0  0  0
   -5.9592   -3.2242    3.9038 H   0  0  0  0  0  0  0  0  0  0  0  0
   -9.4811   -0.6377    5.5126 H   0  0  0  0  0  0  0  0  0  0  0  0
   -8.7907   -1.3376    7.0207 H   0  0  0  0  0  0  0  0  0  0  0  0
  -10.0025   -2.2448    6.0884 H   0  0  0  0  0  0  0  0  0  0  0  0
   -8.1392   -3.4634    3.5036 H   0  0  0  0  0  0  0  0  0  0  0  0
   -9.4318   -3.7398    4.6918 H   0  0  0  0  0  0  0  0  0  0  0  0
   -7.7740   -4.2937    5.0585 H   0  0  0  0  0  0  0  0  0  0  0  0
   -7.3564    0.1908    6.2121 H   0  0  0  0  0  0  0  0  0  0  0  0
   -5.1456    1.2068    6.0204 H   0  0  0  0  0  0  0  0  0  0  0  0
  1  4  1  0  0  0  0
  2  1  1  0  0  0  0
  2 23  1  0  0  0  0
  2 24  1  0  0  0  0
  3  1  1  0  0  0  0
  4  9  1  0  0  0  0
  5  4  2  0  0  0  0
  5  6  1  0  0  0  0
  6  7  2  0  0  0  0
  7  8  1  0  0  0  0
  7 10  1  0  0  0  0
  8 31  1  0  0  0  0
  9 32  1  0  0  0  0
  9  8  2  0  0  0  0
 10 14  1  0  0  0  0
 10 11  1  0  0  0  0
 11 12  1  0  0  0  0
 13 11  1  0  0  0  0
 14 22  2  0  0  0  0
 15 16  2  0  0  0  0
 15 14  1  0  0  0  0
 16 17  1  0  0  0  0
 17 18  1  0  0  0  0
 17 21  2  0  0  0  0
 18 19  1  0  0  0  0
 19 37  1  0  0  0  0
 19 36  1  0  0  0  0
 20 39  1  0  0  0  0
 20 40  1  0  0  0  0
 20 18  1  0  0  0  0
 21 41  1  0  0  0  0
 22 21  1  0  0  0  0
 22 42  1  0  0  0  0
 25  2  1  0  0  0  0
 26  3  1  0  0  0  0
 27  3  1  0  0  0  0
 28  3  1  0  0  0  0
 29  5  1  0  0  0  0
 30  6  1  0  0  0  0
 33 15  1  0  0  0  0
 34 16  1  0  0  0  0
 35 19  1  0  0  0  0
 38 20  1  0  0  0  0
M  RAD  1  10   2
M  END
$$$$
