rmsd37.gzmat
 OpenBabel08211713363D

 42 43  0  0  0  0  0  0  0  0999 V2000
    0.0000    0.0000    0.0000 N   0  0  0  0  0  0  0  0  0  0  0  0
    1.4640    0.0000    0.0000 C   0  0  0  0  0  0  0  0  0  0  0  0
   -0.6585    0.0000   -1.3075 C   0  0  0  0  0  0  0  0  0  0  0  0
   -0.7088   -0.0432    1.1509 C   0  0  0  0  0  0  0  0  0  0  0  0
   -2.1376   -0.0808    1.1383 C   0  0  0  0  0  0  0  0  0  0  0  0
   -2.8448   -0.1224    2.3138 C   0  0  0  0  0  0  0  0  0  0  0  0
   -2.1917   -0.1424    3.5669 C   0  0  0  0  0  0  0  0  0  0  0  0
   -0.7803   -0.0988    3.5843 C   0  0  0  0  0  0  0  0  0  0  0  0
   -0.0522   -0.0457    2.4226 C   0  0  0  0  0  0  0  0  0  0  0  0
   -2.9707   -0.2140    4.7751 C   0  0  0  0  0  0  0  0  0  0  0  0
   -2.4849   -0.9058    5.8238 N   0  0  0  0  0  0  0  0  0  0  0  0
   -2.9622   -0.9383    6.7102 H   0  0  0  0  0  0  0  0  0  0  0  0
   -1.6224   -1.4234    5.7685 H   0  0  0  0  0  0  0  0  0  0  0  0
   -4.2516    0.4301    4.8955 C   0  0  0  0  0  0  0  0  0  0  0  0
   -5.3029   -0.1191    5.6621 C   0  0  0  0  0  0  0  0  0  0  0  0
   -6.5188    0.5088    5.7621 C   0  0  0  0  0  0  0  0  0  0  0  0
   -6.7550    1.7501    5.0899 C   0  0  0  0  0  0  0  0  0  0  0  0
   -7.9589    2.3619    5.1576 N   0  0  0  0  0  0  0  0  0  0  0  0
   -8.2067    3.6408    4.4897 C   0  0  0  0  0  0  0  0  0  0  0  0
   -9.0600    1.8057    5.9456 C   0  0  0  0  0  0  0  0  0  0  0  0
   -5.6812    2.3131    4.3326 C   0  0  0  0  0  0  0  0  0  0  0  0
   -4.4780    1.6599    4.2362 C   0  0  0  0  0  0  0  0  0  0  0  0
    1.8623   -0.9054    0.4978 H   0  0  0  0  0  0  0  0  0  0  0  0
    1.8601    0.8954    0.5172 H   0  0  0  0  0  0  0  0  0  0  0  0
    1.8674    0.0117   -1.0292 H   0  0  0  0  0  0  0  0  0  0  0  0
   -1.2249   -0.9381   -1.4672 H   0  0  0  0  0  0  0  0  0  0  0  0
    0.0766    0.0862   -2.1291 H   0  0  0  0  0  0  0  0  0  0  0  0
   -1.3533    0.8565   -1.4028 H   0  0  0  0  0  0  0  0  0  0  0  0
   -2.6732   -0.0834    0.1925 H   0  0  0  0  0  0  0  0  0  0  0  0
   -3.9404   -0.1623    2.2852 H   0  0  0  0  0  0  0  0  0  0  0  0
   -0.2531   -0.0766    4.5426 H   0  0  0  0  0  0  0  0  0  0  0  0
    1.0330    0.0015    2.4726 H   0  0  0  0  0  0  0  0  0  0  0  0
   -5.1601   -1.0792    6.1663 H   0  0  0  0  0  0  0  0  0  0  0  0
   -7.3096    0.0550    6.3548 H   0  0  0  0  0  0  0  0  0  0  0  0
   -7.9889    3.5709    3.4064 H   0  0  0  0  0  0  0  0  0  0  0  0
   -7.5839    4.4455    4.9269 H   0  0  0  0  0  0  0  0  0  0  0  0
   -9.2637    3.9493    4.5882 H   0  0  0  0  0  0  0  0  0  0  0  0
   -9.3153    0.7838    5.6033 H   0  0  0  0  0  0  0  0  0  0  0  0
   -9.9748    2.4190    5.8483 H   0  0  0  0  0  0  0  0  0  0  0  0
   -8.8004    1.7667    7.0214 H   0  0  0  0  0  0  0  0  0  0  0  0
   -5.8121    3.2687    3.8314 H   0  0  0  0  0  0  0  0  0  0  0  0
   -3.6630    2.1069    3.6538 H   0  0  0  0  0  0  0  0  0  0  0  0
  1  4  1  0  0  0  0
  2  1  1  0  0  0  0
  2 23  1  0  0  0  0
  2 24  1  0  0  0  0
  3  1  1  0  0  0  0
  4  9  1  0  0  0  0
  5  4  2  0  0  0  0
  5  6  1  0  0  0  0
  6  7  2  0  0  0  0
  7  8  1  0  0  0  0
  7 10  1  0  0  0  0
  8 31  1  0  0  0  0
  9 32  1  0  0  0  0
  9  8  2  0  0  0  0
 10 14  1  0  0  0  0
 10 11  1  0  0  0  0
 11 12  1  0  0  0  0
 13 11  1  0  0  0  0
 14 15  2  0  0  0  0
 15 16  1  0  0  0  0
 15 33  1  0  0  0  0
 16 34  1  0  0  0  0
 17 18  1  0  0  0  0
 17 16  2  0  0  0  0
 18 20  1  0  0  0  0
 19 37  1  0  0  0  0
 19 36  1  0  0  0  0
 19 18  1  0  0  0  0
 20 40  1  0  0  0  0
 21 17  1  0  0  0  0
 22 21  2  0  0  0  0
 22 14  1  0  0  0  0
 25  2  1  0  0  0  0
 26  3  1  0  0  0  0
 27  3  1  0  0  0  0
 28  3  1  0  0  0  0
 29  5  1  0  0  0  0
 30  6  1  0  0  0  0
 35 19  1  0  0  0  0
 38 20  1  0  0  0  0
 39 20  1  0  0  0  0
 41 21  1  0  0  0  0
 42 22  1  0  0  0  0
M  RAD  1  10   2
M  END
$$$$
