42
rmsd39.gzmat
N          0.00000        0.00000        0.00000
C          1.46390        0.00000        0.00000
C         -0.65580        0.00000       -1.30850
C         -0.70850       -0.00780        1.15120
C         -0.05490        0.04390        2.42170
C         -0.78550        0.02590        3.58310
C         -2.19620       -0.06120        3.56550
C         -2.84680       -0.09760        2.31260
C         -2.13850       -0.06650        1.13820
C         -2.91790       -0.12340        4.80780
N         -4.04390       -0.85920        4.87650
H         -4.61240       -0.88650        5.70790
H         -4.36820       -1.41640        4.10270
C         -2.47440        0.57330        5.98720
C         -1.87470        1.84630        5.86430
C         -1.47370        2.55690        6.96830
C         -1.64170        2.01590        8.28080
N         -1.26510        2.71050        9.37820
C         -1.45420        2.17570       10.72790
C         -0.64620        4.03270        9.27220
C         -2.22100        0.71250        8.39710
C         -2.62690        0.02730        7.27990
H          1.86240       -0.81430        0.63620
H          1.85910        0.96680        0.36800
H          1.86660       -0.16100       -1.01760
H         -1.14670       -0.97290       -1.50500
H          0.07110        0.17930       -2.12240
H         -1.41610        0.80210       -1.37540
H          1.02940        0.10030        2.47400
H         -0.26780        0.06010        4.54930
H         -3.93950       -0.12230        2.27210
H         -2.67120       -0.08940        0.19060
H         -1.74830        2.27930        4.86470
H         -1.03160        3.54150        6.83760
H         -0.87000        1.24650       10.87270
H         -2.52290        1.95950       10.92300
H         -1.12200        2.89620       11.49790
H          0.27890        3.99040        8.66560
H         -0.36760        4.42820       10.26610
H         -1.34230        4.76030        8.81160
H         -2.33260        0.25490        9.37680
H         -3.04710       -0.97580        7.39580
