42
rmsd38.gzmat
N          0.00000        0.00000        0.00000
C          1.46410        0.00000        0.00000
C         -0.65730        0.00000       -1.30850
C         -0.70960       -0.02770        1.14990
C         -2.13940       -0.04360        1.13740
C         -2.84630       -0.10350        2.31170
C         -2.19370       -0.16020        3.56540
C         -0.78120       -0.10940        3.58310
C         -0.05330       -0.03970        2.42280
C         -2.97490       -0.28490        4.76420
N         -2.46450       -0.95160        5.81750
H         -2.95570       -1.01580        6.69490
H         -1.57140       -1.41510        5.77740
C         -4.29920        0.27340        4.88090
C         -5.33570       -0.39880        5.56280
C         -6.59080        0.14660        5.67070
C         -6.87980        1.42570        5.09870
N         -8.11330        1.97250        5.19740
C         -8.41870        3.28080        4.61590
C         -9.20180        1.29110        5.89980
C         -5.82460        2.10370        4.41310
C         -4.58110        1.53150        4.30580
H          1.86240       -0.90040        0.50670
H          1.86090        0.89990        0.50870
H          1.86740        0.00160       -1.02970
H         -1.26680       -0.91420       -1.44730
H          0.08150        0.02860       -2.13090
H         -1.31070        0.88600       -1.42630
H         -2.67540       -0.01380        0.19200
H         -3.94290       -0.12910        2.28370
H         -0.25400       -0.09520        4.54180
H          1.03150        0.01330        2.47280
H         -5.14820       -1.38830        5.98940
H         -7.37090       -0.40360        6.19130
H         -8.24490        3.27930        3.52240
H         -7.79660        4.07410        5.07430
H         -9.47640        3.55760        4.77810
H         -9.41540        0.30670        5.43940
H        -10.13700        1.87970        5.86230
H         -8.95210        1.13860        6.96780
H         -6.00190        3.08300        3.97570
H         -3.78050        2.06680        3.78200
