42
rmsd33.gzmat
N          0.00000        0.00000        0.00000
C          1.46390        0.00000        0.00000
C         -0.66100        0.00000       -1.30620
C         -0.70830       -0.00100        1.15090
C         -2.13770        0.03570        1.14020
C         -2.84250        0.06430        2.31690
C         -2.18670        0.06870        3.56990
C         -0.77530        0.00630        3.58450
C         -0.05000       -0.03610        2.42160
C         -2.96460        0.15120        4.77400
N         -2.45560        0.78540        5.84750
H         -2.94740        0.82210        6.72630
H         -1.56290        1.25090        5.82130
C         -4.28380       -0.42070        4.87380
C         -4.55540       -1.66340        4.26120
C         -5.78950       -2.25590        4.36730
C         -6.84290       -1.61550        5.09090
N         -8.06100       -2.19160        5.20990
C         -9.13080       -1.57150        5.99340
C         -8.36190       -3.48190        4.58770
C         -6.57010       -0.34150        5.68240
C         -5.32380        0.22310        5.57680
H          1.85990       -0.94880        0.41040
H          1.86130        0.84140        0.60040
H          1.86750        0.11330       -1.02260
H         -1.32940       -0.87600       -1.41390
H          0.07380       -0.04810       -2.13060
H         -1.25740        0.92250       -1.44780
H         -2.67460        0.05020        0.19520
H         -3.93850        0.10770        2.29140
H         -0.24590       -0.03960        4.54080
H          1.03390       -0.10740        2.46800
H         -3.75400       -2.17000        3.71030
H         -5.95920       -3.22420        3.90380
H         -9.48110       -0.63770        5.51260
H         -8.79070       -1.33760        7.02070
H        -10.00250       -2.24480        6.08840
H         -8.13920       -3.46340        3.50360
H         -9.43180       -3.73980        4.69180
H         -7.77400       -4.29370        5.05850
H         -7.35640        0.19080        6.21210
H         -5.14560        1.20680        6.02040
