42
rmsd35.gzmat
N          0.00000        0.00000        0.00000
C          1.46390        0.00000        0.00000
C         -0.65870        0.00000       -1.30740
C         -0.70820       -0.03440        1.15150
C         -0.05460       -0.00760        2.42270
C         -0.78710       -0.03470        3.58350
C         -2.19750       -0.10990        3.56160
C         -2.84790       -0.13390        2.30910
C         -2.13780       -0.09160        1.13580
C         -2.92740       -0.17100        4.80150
N         -4.03150       -0.94020        4.86510
H         -4.61340       -0.97530        5.68620
H         -4.32430       -1.51770        4.09300
C         -2.51520        0.56140        5.96770
C         -2.71880        0.06750        7.27530
C         -2.34320        0.78970        8.37900
C         -1.74110        2.08050        8.23460
N         -1.39700        2.81290        9.31750
C         -0.76110        4.12460        9.18390
C         -1.61230        2.31850       10.67860
C         -1.52140        2.56940        6.90920
C         -1.89420        1.82300        5.81960
H          1.86230       -0.87350        0.55240
H          1.86040        0.92430        0.46330
H          1.86620       -0.05460       -1.02830
H         -1.16830       -0.96510       -1.49500
H          0.06850        0.15780       -2.12500
H         -1.40400        0.81600       -1.37780
H          1.03030        0.03410        2.47640
H         -0.27120       -0.01810        4.55090
H         -3.94070       -0.15850        2.26830
H         -2.66970       -0.10320        0.18760
H         -3.15860       -0.92410        7.41480
H         -2.50090        0.37340        9.37080
H         -1.41710        4.82790        8.63390
H          0.20470        4.04640        8.64860
H         -0.55380        4.57520       10.17210
H         -2.68260        2.09660       10.85590
H         -1.30610        3.06650       11.43280
H         -1.02340        1.39970       10.86680
H         -1.06110        3.54280        6.75840
H         -1.72760        2.21680        4.80940
