42
rmsd37.gzmat
N          0.00000        0.00000        0.00000
C          1.46400        0.00000        0.00000
C         -0.65850        0.00000       -1.30750
C         -0.70880       -0.04320        1.15090
C         -2.13760       -0.08080        1.13830
C         -2.84480       -0.12240        2.31380
C         -2.19170       -0.14240        3.56690
C         -0.78030       -0.09880        3.58430
C         -0.05220       -0.04570        2.42260
C         -2.97070       -0.21400        4.77510
N         -2.48490       -0.90580        5.82380
H         -2.96220       -0.93830        6.71020
H         -1.62240       -1.42340        5.76850
C         -4.25160        0.43010        4.89550
C         -5.30290       -0.11910        5.66210
C         -6.51880        0.50880        5.76210
C         -6.75500        1.75010        5.08990
N         -7.95890        2.36190        5.15760
C         -8.20670        3.64080        4.48970
C         -9.06000        1.80570        5.94560
C         -5.68120        2.31310        4.33260
C         -4.47800        1.65990        4.23620
H          1.86230       -0.90540        0.49780
H          1.86010        0.89540        0.51720
H          1.86740        0.01170       -1.02920
H         -1.22490       -0.93810       -1.46720
H          0.07660        0.08620       -2.12910
H         -1.35330        0.85650       -1.40280
H         -2.67320       -0.08340        0.19250
H         -3.94040       -0.16230        2.28520
H         -0.25310       -0.07660        4.54260
H          1.03300        0.00150        2.47260
H         -5.16010       -1.07920        6.16630
H         -7.30960        0.05500        6.35480
H         -7.98890        3.57090        3.40640
H         -7.58390        4.44550        4.92690
H         -9.26370        3.94930        4.58820
H         -9.31530        0.78380        5.60330
H         -9.97480        2.41900        5.84830
H         -8.80040        1.76670        7.02140
H         -5.81210        3.26870        3.83140
H         -3.66300        2.10690        3.65380
