rmsd157.gzmat
 OpenBabel08211713413D

 51 54  0  0  1  0  0  0  0  0999 V2000
    0.0000    0.0000    0.0000 O   0  0  0  0  0  0  0  0  0  0  0  0
    1.2099    0.0000    0.0000 C   0  0  0  0  0  0  0  0  0  0  0  0
    1.9824    0.0000    1.1509 N   0  0  0  0  0  0  0  0  0  0  0  0
    3.4256    0.0813    0.8684 C   0  0  0  0  0  0  0  0  0  0  0  0
    3.5291    0.2990   -0.6692 C   0  0  2  0  0  0  0  0  0  0  0  0
    4.3421   -0.2921   -1.1350 H   0  0  0  0  0  0  0  0  0  0  0  0
    3.9051    1.6194   -0.9228 O   0  0  0  0  0  0  0  0  0  0  0  0
    2.1204   -0.0475   -1.2255 C   0  0  2  0  0  0  0  0  0  0  0  0
    2.1143   -1.0899   -1.6271 H   0  0  0  0  0  0  0  0  0  0  0  0
    1.7002    0.9206   -2.3554 C   0  0  2  0  0  0  0  0  0  0  0  0
    2.6491    1.2683   -2.8644 H   0  0  0  0  0  0  0  0  0  0  0  0
    1.0347    2.1001   -1.7549 N   0  0  0  0  0  0  0  0  0  0  0  0
    0.9728    3.2766   -2.5396 C   0  0  0  0  0  0  0  0  0  0  0  0
   -0.2016    4.0493   -2.5110 C   0  0  0  0  0  0  0  0  0  0  0  0
   -0.2426    5.2628   -3.1869 C   0  0  0  0  0  0  0  0  0  0  0  0
    0.8685    5.7152   -3.8978 C   0  0  0  0  0  0  0  0  0  0  0  0
    2.0325    4.9493   -3.9207 C   0  0  0  0  0  0  0  0  0  0  0  0
    2.0954    3.7353   -3.2452 C   0  0  0  0  0  0  0  0  0  0  0  0
    0.8137    0.2551   -3.3866 C   0  0  0  0  0  0  0  0  0  0  0  0
    1.1431    0.3994   -4.7363 C   0  0  0  0  0  0  0  0  0  0  0  0
    0.3243   -0.1526   -5.7184 C   0  0  0  0  0  0  0  0  0  0  0  0
   -0.8253   -0.8529   -5.3557 C   0  0  0  0  0  0  0  0  0  0  0  0
   -1.1533   -0.9981   -4.0095 C   0  0  0  0  0  0  0  0  0  0  0  0
   -0.3377   -0.4419   -3.0264 C   0  0  0  0  0  0  0  0  0  0  0  0
    1.4972    0.2329    2.4599 C   0  0  0  0  0  0  0  0  0  0  0  0
    2.2063   -0.2756    3.5570 C   0  0  0  0  0  0  0  0  0  0  0  0
    1.7426   -0.0583    4.8470 C   0  0  0  0  0  0  0  0  0  0  0  0
    0.5559    0.6678    5.0519 C   0  0  0  0  0  0  0  0  0  0  0  0
    0.1256    0.9565    6.3490 N   0  0  0  0  0  0  0  0  0  0  0  0
   -0.1603    1.1690    3.9484 C   0  0  0  0  0  0  0  0  0  0  0  0
    0.3110    0.9566    2.6632 C   0  0  0  0  0  0  0  0  0  0  0  0
    3.9005    0.9244    1.4154 H   0  0  0  0  0  0  0  0  0  0  0  0
    3.9310   -0.8538    1.1824 H   0  0  0  0  0  0  0  0  0  0  0  0
    3.1453    2.2414   -0.7869 H   0  0  0  0  0  0  0  0  0  0  0  0
    0.1414    1.8392   -1.3199 H   0  0  0  0  0  0  0  0  0  0  0  0
   -1.0749    3.6992   -1.9668 H   0  0  0  0  0  0  0  0  0  0  0  0
   -1.1518    5.8626   -3.1641 H   0  0  0  0  0  0  0  0  0  0  0  0
    0.8269    6.6612   -4.4290 H   0  0  0  0  0  0  0  0  0  0  0  0
    2.9043    5.3050   -4.4680 H   0  0  0  0  0  0  0  0  0  0  0  0
    3.0180    3.1603   -3.2511 H   0  0  0  0  0  0  0  0  0  0  0  0
    2.0337    0.9536   -5.0282 H   0  0  0  0  0  0  0  0  0  0  0  0
    0.5800   -0.0326   -6.7690 H   0  0  0  0  0  0  0  0  0  0  0  0
   -1.4667   -1.2816   -6.1226 H   0  0  0  0  0  0  0  0  0  0  0  0
   -2.0507   -1.5431   -3.7227 H   0  0  0  0  0  0  0  0  0  0  0  0
   -0.6144   -0.5519   -1.9741 H   0  0  0  0  0  0  0  0  0  0  0  0
    3.1176   -0.8497    3.4038 H   0  0  0  0  0  0  0  0  0  0  0  0
    2.2981   -0.4460    5.6954 H   0  0  0  0  0  0  0  0  0  0  0  0
   -0.8178    1.2602    6.4745 H   0  0  0  0  0  0  0  0  0  0  0  0
    0.4893    0.4080    7.0992 H   0  0  0  0  0  0  0  0  0  0  0  0
   -1.0781    1.7301    4.1026 H   0  0  0  0  0  0  0  0  0  0  0  0
   -0.2482    1.3488    1.8094 H   0  0  0  0  0  0  0  0  0  0  0  0
  2  1  2  0  0  0  0
  2  3  1  0  0  0  0
  3 25  1  0  0  0  0
  4  3  1  0  0  0  0
  4 33  1  0  0  0  0
  4 32  1  0  0  0  0
  5  8  1  0  0  0  0
  5  4  1  0  0  0  0
  5  6  1  6  0  0  0
  7 34  1  0  0  0  0
  7  5  1  0  0  0  0
  8  9  1  6  0  0  0
  8  2  1  0  0  0  0
 10 11  1  6  0  0  0
 10 12  1  0  0  0  0
 10  8  1  0  0  0  0
 12 35  1  0  0  0  0
 13 14  1  0  0  0  0
 13 12  1  0  0  0  0
 14 36  1  0  0  0  0
 15 37  1  0  0  0  0
 15 14  2  0  0  0  0
 16 15  1  0  0  0  0
 17 16  2  0  0  0  0
 17 18  1  0  0  0  0
 18 13  2  0  0  0  0
 19 24  1  0  0  0  0
 19 10  1  0  0  0  0
 20 19  2  0  0  0  0
 21 22  2  0  0  0  0
 21 20  1  0  0  0  0
 22 23  1  0  0  0  0
 23 44  1  0  0  0  0
 23 24  2  0  0  0  0
 24 45  1  0  0  0  0
 25 31  2  0  0  0  0
 25 26  1  0  0  0  0
 26 27  2  0  0  0  0
 27 28  1  0  0  0  0
 27 47  1  0  0  0  0
 28 29  1  0  0  0  0
 29 48  1  0  0  0  0
 29 49  1  0  0  0  0
 30 50  1  0  0  0  0
 30 28  2  0  0  0  0
 31 30  1  0  0  0  0
 38 16  1  0  0  0  0
 39 17  1  0  0  0  0
 40 18  1  0  0  0  0
 41 20  1  0  0  0  0
 42 21  1  0  0  0  0
 43 22  1  0  0  0  0
 46 26  1  0  0  0  0
 51 31  1  0  0  0  0
M  END
$$$$
