51
rmsd156.gzmat
O          0.00000        0.00000        0.00000
C          1.21010        0.00000        0.00000
N          1.98560        0.00000        1.14720
C          3.42520        0.12050        0.86110
C          3.52820        0.30610       -0.68070
H          4.32850       -0.31400       -1.13270
O          3.93760        1.60880       -0.96310
C          2.11470       -0.03070       -1.22930
H          2.10440       -1.07420       -1.63340
C          1.69440        0.93060       -2.36400
H          2.64140        1.23530       -2.90550
N          1.10140        2.15500       -1.77840
C          0.89460        3.25340       -2.64750
C         -0.20430        4.09680       -2.40060
C         -0.38200        5.23880       -3.17120
C          0.51730        5.55320       -4.18970
C          1.60660        4.71860       -4.43010
C          1.80350        3.57180       -3.66760
C          0.76040        0.26270       -3.35100
C         -0.52350       -0.13860       -2.98590
C         -1.38190       -0.68280       -3.93880
C         -0.95970       -0.82990       -5.25850
C          0.32900       -0.44240       -5.62190
C          1.18790        0.10250       -4.67070
C          1.50830        0.05260        2.47710
C          2.33530       -0.37650        3.52600
C          1.87900       -0.34120        4.83620
C          0.58090        0.12000        5.11490
N          0.14400        0.22520        6.43830
C         -0.25010        0.54640        4.06240
C          0.21350        0.51860        2.75680
H          3.86360        0.99700        1.38750
H          3.96840       -0.78500        1.19630
H          3.19060        2.25330       -0.86720
H          0.28590        1.93170       -1.19600
H         -0.91260        3.85580       -1.61230
H         -1.23370        5.89090       -2.98110
H          0.36800        6.44390       -4.79240
H          2.31270        4.96420       -5.22230
H          2.66300        2.93760       -3.86350
H         -0.86710       -0.03110       -1.95320
H         -2.38570       -0.98890       -3.64940
H         -1.63430       -1.24580       -6.00390
H          0.66180       -0.55820       -6.65110
H          2.18800        0.41250       -4.96710
H          3.33780       -0.74780        3.32500
H          2.52790       -0.66490        5.64440
H         -0.83740        0.31240        6.60260
H          0.63820       -0.28750        7.13800
H         -1.25400        0.90720        4.27170
H         -0.44010        0.85610        1.94730
