rmsd134.gzmat
 OpenBabel08211713413D

 51 54  0  0  1  0  0  0  0  0999 V2000
    0.0000    0.0000    0.0000 O   0  0  0  0  0  0  0  0  0  0  0  0
    1.2097    0.0000    0.0000 C   0  0  0  0  0  0  0  0  0  0  0  0
    1.9889    0.0000    1.1470 N   0  0  0  0  0  0  0  0  0  0  0  0
    3.4299    0.0937    0.8543 C   0  0  0  0  0  0  0  0  0  0  0  0
    3.5220    0.3194   -0.6817 C   0  0  2  0  0  0  0  0  0  0  0  0
    4.3423   -0.2556   -1.1545 H   0  0  0  0  0  0  0  0  0  0  0  0
    3.8729    1.6471   -0.9317 O   0  0  0  0  0  0  0  0  0  0  0  0
    2.1164   -0.0515   -1.2287 C   0  0  2  0  0  0  0  0  0  0  0  0
    2.1217   -1.1001   -1.6148 H   0  0  0  0  0  0  0  0  0  0  0  0
    1.6917    0.8946   -2.3729 C   0  0  2  0  0  0  0  0  0  0  0  0
    2.6423    1.2289   -2.8895 H   0  0  0  0  0  0  0  0  0  0  0  0
    1.0339    2.0890   -1.7911 N   0  0  0  0  0  0  0  0  0  0  0  0
    0.9647    3.2325   -2.6261 C   0  0  0  0  0  0  0  0  0  0  0  0
   -0.2321    3.9654   -2.6871 C   0  0  0  0  0  0  0  0  0  0  0  0
   -0.2813    5.1384   -3.4314 C   0  0  0  0  0  0  0  0  0  0  0  0
    0.8439    5.5852   -4.1227 C   0  0  0  0  0  0  0  0  0  0  0  0
    2.0326    4.8607   -4.0522 C   0  0  0  0  0  0  0  0  0  0  0  0
    2.1044    3.6907   -3.3046 C   0  0  0  0  0  0  0  0  0  0  0  0
    0.8017    0.2241   -3.3976 C   0  0  0  0  0  0  0  0  0  0  0  0
    1.0620    0.4636   -4.7495 C   0  0  0  0  0  0  0  0  0  0  0  0
    0.2535   -0.1058   -5.7294 C   0  0  0  0  0  0  0  0  0  0  0  0
   -0.8181   -0.9189   -5.3629 C   0  0  0  0  0  0  0  0  0  0  0  0
   -1.0843   -1.1493   -4.0152 C   0  0  0  0  0  0  0  0  0  0  0  0
   -0.2808   -0.5732   -3.0330 C   0  0  0  0  0  0  0  0  0  0  0  0
    1.5208    0.1898    2.4682 C   0  0  0  0  0  0  0  0  0  0  0  0
    2.3008   -0.2564    3.5452 C   0  0  0  0  0  0  0  0  0  0  0  0
    1.8604   -0.0732    4.8484 C   0  0  0  0  0  0  0  0  0  0  0  0
    0.6269    0.5570    5.0892 C   0  0  0  0  0  0  0  0  0  0  0  0
    0.2208    0.8208    6.3994 N   0  0  0  0  0  0  0  0  0  0  0  0
   -0.1621    0.9901    4.0071 C   0  0  0  0  0  0  0  0  0  0  0  0
    0.2860    0.8133    2.7081 C   0  0  0  0  0  0  0  0  0  0  0  0
    3.8994    0.9402    1.4009 H   0  0  0  0  0  0  0  0  0  0  0  0
    3.9461   -0.8383    1.1594 H   0  0  0  0  0  0  0  0  0  0  0  0
    3.1001    2.2546   -0.8005 H   0  0  0  0  0  0  0  0  0  0  0  0
    0.1418    1.8386   -1.3478 H   0  0  0  0  0  0  0  0  0  0  0  0
   -1.1164    3.6146   -2.1614 H   0  0  0  0  0  0  0  0  0  0  0  0
   -1.2081    5.7089   -3.4776 H   0  0  0  0  0  0  0  0  0  0  0  0
    0.7959    6.4954   -4.7125 H   0  0  0  0  0  0  0  0  0  0  0  0
    2.9142    5.2150   -4.5846 H   0  0  0  0  0  0  0  0  0  0  0  0
    3.0448    3.1486   -3.2337 H   0  0  0  0  0  0  0  0  0  0  0  0
    1.8900    1.1074   -5.0431 H   0  0  0  0  0  0  0  0  0  0  0  0
    0.4565    0.0872   -6.7806 H   0  0  0  0  0  0  0  0  0  0  0  0
   -1.4469   -1.3680   -6.1287 H   0  0  0  0  0  0  0  0  0  0  0  0
   -1.9243   -1.7783   -3.7254 H   0  0  0  0  0  0  0  0  0  0  0  0
   -0.5152   -0.7441   -1.9789 H   0  0  0  0  0  0  0  0  0  0  0  0
    3.2521   -0.7544    3.3693 H   0  0  0  0  0  0  0  0  0  0  0  0
    2.4712   -0.4109    5.6803 H   0  0  0  0  0  0  0  0  0  0  0  0
   -0.7385    1.0489    6.5576 H   0  0  0  0  0  0  0  0  0  0  0  0
    0.6572    0.3133    7.1399 H   0  0  0  0  0  0  0  0  0  0  0  0
   -1.1190    1.4725    4.1878 H   0  0  0  0  0  0  0  0  0  0  0  0
   -0.3299    1.1569    1.8722 H   0  0  0  0  0  0  0  0  0  0  0  0
  1  2  2  0  0  0  0
  2  3  1  0  0  0  0
  3 25  1  0  0  0  0
  4  3  1  0  0  0  0
  4 33  1  0  0  0  0
  4 32  1  0  0  0  0
  5  8  1  0  0  0  0
  5  4  1  0  0  0  0
  5  6  1  6  0  0  0
  7 34  1  0  0  0  0
  7  5  1  0  0  0  0
  8  9  1  6  0  0  0
  8  2  1  0  0  0  0
 10 11  1  6  0  0  0
 10 12  1  0  0  0  0
 10  8  1  0  0  0  0
 12 35  1  0  0  0  0
 13 12  1  0  0  0  0
 14 13  1  0  0  0  0
 14 36  1  0  0  0  0
 15 14  2  0  0  0  0
 16 17  2  0  0  0  0
 16 15  1  0  0  0  0
 17 18  1  0  0  0  0
 18 40  1  0  0  0  0
 18 13  2  0  0  0  0
 19 24  1  0  0  0  0
 19 10  1  0  0  0  0
 20 19  2  0  0  0  0
 21 22  2  0  0  0  0
 21 20  1  0  0  0  0
 22 23  1  0  0  0  0
 23 44  1  0  0  0  0
 23 24  2  0  0  0  0
 24 45  1  0  0  0  0
 25 31  2  0  0  0  0
 25 26  1  0  0  0  0
 26 27  2  0  0  0  0
 27 28  1  0  0  0  0
 27 47  1  0  0  0  0
 28 29  1  0  0  0  0
 29 48  1  0  0  0  0
 29 49  1  0  0  0  0
 30 50  1  0  0  0  0
 30 28  2  0  0  0  0
 31 30  1  0  0  0  0
 37 15  1  0  0  0  0
 38 16  1  0  0  0  0
 39 17  1  0  0  0  0
 41 20  1  0  0  0  0
 42 21  1  0  0  0  0
 43 22  1  0  0  0  0
 46 26  1  0  0  0  0
 51 31  1  0  0  0  0
M  END
$$$$
