rmsd139.gzmat
 OpenBabel08211713413D

 51 54  0  0  1  0  0  0  0  0999 V2000
    0.0000    0.0000    0.0000 O   0  0  0  0  0  0  0  0  0  0  0  0
    1.2101    0.0000    0.0000 C   0  0  0  0  0  0  0  0  0  0  0  0
    1.9873    0.0000    1.1467 N   0  0  0  0  0  0  0  0  0  0  0  0
    3.4283    0.1040    0.8577 C   0  0  0  0  0  0  0  0  0  0  0  0
    3.5229    0.3286   -0.6791 C   0  0  2  0  0  0  0  0  0  0  0  0
    4.3422   -0.2511   -1.1489 H   0  0  0  0  0  0  0  0  0  0  0  0
    3.8810    1.6534   -0.9315 O   0  0  0  0  0  0  0  0  0  0  0  0
    2.1179   -0.0392   -1.2276 C   0  0  2  0  0  0  0  0  0  0  0  0
    2.1249   -1.0879   -1.6166 H   0  0  0  0  0  0  0  0  0  0  0  0
    1.6840    0.9049   -2.3723 C   0  0  2  0  0  0  0  0  0  0  0  0
    2.6276    1.2575   -2.8890 H   0  0  0  0  0  0  0  0  0  0  0  0
    1.0113    2.0939   -1.8015 N   0  0  0  0  0  0  0  0  0  0  0  0
    0.8203    3.2033   -2.6605 C   0  0  0  0  0  0  0  0  0  0  0  0
   -0.3563    3.9615   -2.5210 C   0  0  0  0  0  0  0  0  0  0  0  0
   -0.5260    5.1137   -3.2785 C   0  0  0  0  0  0  0  0  0  0  0  0
    0.4586    5.5213   -4.1780 C   0  0  0  0  0  0  0  0  0  0  0  0
    1.6250    4.7709   -4.3112 C   0  0  0  0  0  0  0  0  0  0  0  0
    1.8157    3.6167   -3.5587 C   0  0  0  0  0  0  0  0  0  0  0  0
    0.8148    0.1822   -3.3792 C   0  0  0  0  0  0  0  0  0  0  0  0
    1.2800    0.0469   -4.6885 C   0  0  0  0  0  0  0  0  0  0  0  0
    0.4872   -0.5752   -5.6501 C   0  0  0  0  0  0  0  0  0  0  0  0
   -0.7726   -1.0626   -5.3065 C   0  0  0  0  0  0  0  0  0  0  0  0
   -1.2347   -0.9314   -3.9983 C   0  0  0  0  0  0  0  0  0  0  0  0
   -0.4422   -0.3114   -3.0347 C   0  0  0  0  0  0  0  0  0  0  0  0
    1.5114    0.1621    2.4690 C   0  0  0  0  0  0  0  0  0  0  0  0
    2.2785   -0.3207    3.5389 C   0  0  0  0  0  0  0  0  0  0  0  0
    1.8318   -0.1663    4.8438 C   0  0  0  0  0  0  0  0  0  0  0  0
    0.6028    0.4696    5.0926 C   0  0  0  0  0  0  0  0  0  0  0  0
    0.1881    0.7022    6.4061 N   0  0  0  0  0  0  0  0  0  0  0  0
   -0.1736    0.9402    4.0169 C   0  0  0  0  0  0  0  0  0  0  0  0
    0.2808    0.7917    2.7165 C   0  0  0  0  0  0  0  0  0  0  0  0
    3.8901    0.9540    1.4052 H   0  0  0  0  0  0  0  0  0  0  0  0
    3.9515   -0.8234    1.1645 H   0  0  0  0  0  0  0  0  0  0  0  0
    3.1067    2.2635   -0.8283 H   0  0  0  0  0  0  0  0  0  0  0  0
    0.1684    1.8291   -1.2772 H   0  0  0  0  0  0  0  0  0  0  0  0
   -1.1310    3.6477   -1.8262 H   0  0  0  0  0  0  0  0  0  0  0  0
   -1.4377    5.7002   -3.1712 H   0  0  0  0  0  0  0  0  0  0  0  0
    0.3175    6.4199   -4.7706 H   0  0  0  0  0  0  0  0  0  0  0  0
    2.3975    5.0905   -5.0093 H   0  0  0  0  0  0  0  0  0  0  0  0
    2.7379    3.0522   -3.6618 H   0  0  0  0  0  0  0  0  0  0  0  0
    2.2583    0.4339   -4.9674 H   0  0  0  0  0  0  0  0  0  0  0  0
    0.8496   -0.6751   -6.6710 H   0  0  0  0  0  0  0  0  0  0  0  0
   -1.3950   -1.5417   -6.0595 H   0  0  0  0  0  0  0  0  0  0  0  0
   -2.2186   -1.3101   -3.7266 H   0  0  0  0  0  0  0  0  0  0  0  0
   -0.8141   -0.2176   -2.0103 H   0  0  0  0  0  0  0  0  0  0  0  0
    3.2243   -0.8253    3.3541 H   0  0  0  0  0  0  0  0  0  0  0  0
    2.4350   -0.5312    5.6695 H   0  0  0  0  0  0  0  0  0  0  0  0
   -0.7739    0.9173    6.5646 H   0  0  0  0  0  0  0  0  0  0  0  0
    0.6213    0.1775    7.1366 H   0  0  0  0  0  0  0  0  0  0  0  0
   -1.1255    1.4296    4.2052 H   0  0  0  0  0  0  0  0  0  0  0  0
   -0.3262    1.1615    1.8855 H   0  0  0  0  0  0  0  0  0  0  0  0
  1  2  2  0  0  0  0
  2  3  1  0  0  0  0
  3 25  1  0  0  0  0
  4  3  1  0  0  0  0
  4 33  1  0  0  0  0
  4 32  1  0  0  0  0
  5  8  1  0  0  0  0
  5  4  1  0  0  0  0
  5  6  1  6  0  0  0
  7 34  1  0  0  0  0
  7  5  1  0  0  0  0
  8  9  1  6  0  0  0
  8  2  1  0  0  0  0
 10 11  1  6  0  0  0
 10 12  1  0  0  0  0
 10  8  1  0  0  0  0
 12 35  1  0  0  0  0
 13 14  1  0  0  0  0
 13 12  1  0  0  0  0
 14 36  1  0  0  0  0
 15 37  1  0  0  0  0
 15 14  2  0  0  0  0
 16 15  1  0  0  0  0
 17 16  2  0  0  0  0
 17 18  1  0  0  0  0
 18 13  2  0  0  0  0
 19 24  1  0  0  0  0
 19 10  1  0  0  0  0
 20 19  2  0  0  0  0
 21 22  2  0  0  0  0
 21 20  1  0  0  0  0
 22 23  1  0  0  0  0
 23 44  1  0  0  0  0
 23 24  2  0  0  0  0
 24 45  1  0  0  0  0
 25 31  2  0  0  0  0
 25 26  1  0  0  0  0
 26 27  2  0  0  0  0
 27 28  1  0  0  0  0
 27 47  1  0  0  0  0
 28 29  1  0  0  0  0
 29 48  1  0  0  0  0
 29 49  1  0  0  0  0
 30 50  1  0  0  0  0
 30 28  2  0  0  0  0
 31 30  1  0  0  0  0
 38 16  1  0  0  0  0
 39 17  1  0  0  0  0
 40 18  1  0  0  0  0
 41 20  1  0  0  0  0
 42 21  1  0  0  0  0
 43 22  1  0  0  0  0
 46 26  1  0  0  0  0
 51 31  1  0  0  0  0
M  END
$$$$
