rmsd182.gzmat
 OpenBabel08211713413D

 51 54  0  0  1  0  0  0  0  0999 V2000
    0.0000    0.0000    0.0000 O   0  0  0  0  0  0  0  0  0  0  0  0
    1.2101    0.0000    0.0000 C   0  0  0  0  0  0  0  0  0  0  0  0
    1.9809    0.0000    1.1506 N   0  0  0  0  0  0  0  0  0  0  0  0
    3.4224    0.1160    0.8755 C   0  0  0  0  0  0  0  0  0  0  0  0
    3.5263    0.3293   -0.6635 C   0  0  2  0  0  0  0  0  0  0  0  0
    4.3487   -0.2542   -1.1230 H   0  0  0  0  0  0  0  0  0  0  0  0
    3.8865    1.6522   -0.9230 O   0  0  0  0  0  0  0  0  0  0  0  0
    2.1243   -0.0410   -1.2223 C   0  0  2  0  0  0  0  0  0  0  0  0
    2.1349   -1.0891   -1.6110 H   0  0  0  0  0  0  0  0  0  0  0  0
    1.6957    0.9021   -2.3694 C   0  0  2  0  0  0  0  0  0  0  0  0
    2.6408    1.2428   -2.8902 H   0  0  0  0  0  0  0  0  0  0  0  0
    1.0341    2.0963   -1.7937 N   0  0  0  0  0  0  0  0  0  0  0  0
    0.9101    3.2261   -2.6403 C   0  0  0  0  0  0  0  0  0  0  0  0
   -0.2882    3.9609   -2.6196 C   0  0  0  0  0  0  0  0  0  0  0  0
   -0.3915    5.1293   -3.3650 C   0  0  0  0  0  0  0  0  0  0  0  0
    0.6827    5.5742   -4.1345 C   0  0  0  0  0  0  0  0  0  0  0  0
    1.8708    4.8458   -4.1500 C   0  0  0  0  0  0  0  0  0  0  0  0
    1.9950    3.6767   -3.4072 C   0  0  0  0  0  0  0  0  0  0  0  0
    0.8096    0.2013   -3.3783 C   0  0  0  0  0  0  0  0  0  0  0  0
    1.2078    0.1836   -4.7167 C   0  0  0  0  0  0  0  0  0  0  0  0
    0.3957   -0.4100   -5.6802 C   0  0  0  0  0  0  0  0  0  0  0  0
   -0.8185   -0.9862   -5.3109 C   0  0  0  0  0  0  0  0  0  0  0  0
   -1.2170   -0.9678   -3.9758 C   0  0  0  0  0  0  0  0  0  0  0  0
   -0.4043   -0.3769   -3.0106 C   0  0  0  0  0  0  0  0  0  0  0  0
    1.4819    0.1354    2.4675 C   0  0  0  0  0  0  0  0  0  0  0  0
    2.1847   -0.4406    3.5349 C   0  0  0  0  0  0  0  0  0  0  0  0
    1.6947   -0.3323    4.8286 C   0  0  0  0  0  0  0  0  0  0  0  0
    0.4891    0.3512    5.0671 C   0  0  0  0  0  0  0  0  0  0  0  0
    0.0287    0.5213    6.3752 N   0  0  0  0  0  0  0  0  0  0  0  0
   -0.2158    0.9273    3.9935 C   0  0  0  0  0  0  0  0  0  0  0  0
    0.2819    0.8245    2.7046 C   0  0  0  0  0  0  0  0  0  0  0  0
    3.8691    0.9760    1.4201 H   0  0  0  0  0  0  0  0  0  0  0  0
    3.9542   -0.8017    1.1955 H   0  0  0  0  0  0  0  0  0  0  0  0
    3.1143    2.2643   -0.8146 H   0  0  0  0  0  0  0  0  0  0  0  0
    0.1629    1.8402   -1.3131 H   0  0  0  0  0  0  0  0  0  0  0  0
   -1.1318    3.6154   -2.0280 H   0  0  0  0  0  0  0  0  0  0  0  0
   -1.3205    5.6983   -3.3512 H   0  0  0  0  0  0  0  0  0  0  0  0
    0.5952    6.4858   -4.7177 H   0  0  0  0  0  0  0  0  0  0  0  0
    2.7119    5.1959   -4.7467 H   0  0  0  0  0  0  0  0  0  0  0  0
    2.9345    3.1299   -3.4109 H   0  0  0  0  0  0  0  0  0  0  0  0
    2.1484    0.6422   -5.0165 H   0  0  0  0  0  0  0  0  0  0  0  0
    0.7072   -0.4184   -6.7225 H   0  0  0  0  0  0  0  0  0  0  0  0
   -1.4543   -1.4473   -6.0637 H   0  0  0  0  0  0  0  0  0  0  0  0
   -2.1667   -1.4128   -3.6838 H   0  0  0  0  0  0  0  0  0  0  0  0
   -0.7289   -0.3704   -1.9660 H   0  0  0  0  0  0  0  0  0  0  0  0
    3.1113   -0.9825    3.3563 H   0  0  0  0  0  0  0  0  0  0  0  0
    2.2439   -0.7731    5.6549 H   0  0  0  0  0  0  0  0  0  0  0  0
   -0.9257    0.7855    6.5065 H   0  0  0  0  0  0  0  0  0  0  0  0
    0.3935   -0.0799    7.0838 H   0  0  0  0  0  0  0  0  0  0  0  0
   -1.1465    1.4589    4.1732 H   0  0  0  0  0  0  0  0  0  0  0  0
   -0.2682    1.2735    1.8728 H   0  0  0  0  0  0  0  0  0  0  0  0
  1  2  2  0  0  0  0
  2  3  1  0  0  0  0
  3 25  1  0  0  0  0
  4  3  1  0  0  0  0
  4 33  1  0  0  0  0
  4 32  1  0  0  0  0
  5  8  1  0  0  0  0
  5  4  1  0  0  0  0
  5  6  1  6  0  0  0
  7 34  1  0  0  0  0
  7  5  1  0  0  0  0
  8  9  1  6  0  0  0
  8  2  1  0  0  0  0
 10 11  1  6  0  0  0
 10 12  1  0  0  0  0
 10  8  1  0  0  0  0
 12 35  1  0  0  0  0
 13 14  1  0  0  0  0
 13 12  1  0  0  0  0
 14 36  1  0  0  0  0
 15 37  1  0  0  0  0
 15 14  2  0  0  0  0
 16 15  1  0  0  0  0
 17 16  2  0  0  0  0
 17 18  1  0  0  0  0
 18 13  2  0  0  0  0
 19 24  1  0  0  0  0
 19 10  1  0  0  0  0
 20 19  2  0  0  0  0
 21 22  2  0  0  0  0
 21 20  1  0  0  0  0
 22 23  1  0  0  0  0
 23 44  1  0  0  0  0
 23 24  2  0  0  0  0
 24 45  1  0  0  0  0
 25 31  2  0  0  0  0
 25 26  1  0  0  0  0
 26 27  2  0  0  0  0
 27 28  1  0  0  0  0
 27 47  1  0  0  0  0
 28 29  1  0  0  0  0
 29 48  1  0  0  0  0
 29 49  1  0  0  0  0
 30 50  1  0  0  0  0
 30 28  2  0  0  0  0
 31 30  1  0  0  0  0
 38 16  1  0  0  0  0
 39 17  1  0  0  0  0
 40 18  1  0  0  0  0
 41 20  1  0  0  0  0
 42 21  1  0  0  0  0
 43 22  1  0  0  0  0
 46 26  1  0  0  0  0
 51 31  1  0  0  0  0
M  END
$$$$
