rmsd162.gzmat
 OpenBabel08211713413D

 51 54  0  0  1  0  0  0  0  0999 V2000
    0.0000    0.0000    0.0000 O   0  0  0  0  0  0  0  0  0  0  0  0
    1.2098    0.0000    0.0000 C   0  0  0  0  0  0  0  0  0  0  0  0
    1.9825    0.0000    1.1508 N   0  0  0  0  0  0  0  0  0  0  0  0
    3.4256    0.0786    0.8686 C   0  0  0  0  0  0  0  0  0  0  0  0
    3.5300    0.2956   -0.6691 C   0  0  2  0  0  0  0  0  0  0  0  0
    4.3410   -0.2983   -1.1346 H   0  0  0  0  0  0  0  0  0  0  0  0
    3.9105    1.6145   -0.9235 O   0  0  0  0  0  0  0  0  0  0  0  0
    2.1206   -0.0467   -1.2259 C   0  0  2  0  0  0  0  0  0  0  0  0
    2.1138   -1.0863   -1.6331 H   0  0  0  0  0  0  0  0  0  0  0  0
    1.6975    0.9311   -2.3465 C   0  0  2  0  0  0  0  0  0  0  0  0
    2.6438    1.2751   -2.8620 H   0  0  0  0  0  0  0  0  0  0  0  0
    1.0427    2.1047   -1.7235 N   0  0  0  0  0  0  0  0  0  0  0  0
    1.0445    3.3155   -2.4547 C   0  0  0  0  0  0  0  0  0  0  0  0
   -0.1177    4.1066   -2.4640 C   0  0  0  0  0  0  0  0  0  0  0  0
   -0.0963    5.3518   -3.0806 C   0  0  0  0  0  0  0  0  0  0  0  0
    1.0669    5.8193   -3.6912 C   0  0  0  0  0  0  0  0  0  0  0  0
    2.2188    5.0346   -3.6766 C   0  0  0  0  0  0  0  0  0  0  0  0
    2.2181    3.7871   -3.0625 C   0  0  0  0  0  0  0  0  0  0  0  0
    0.7943    0.2876   -3.3776 C   0  0  0  0  0  0  0  0  0  0  0  0
    1.0538    0.5331   -4.7285 C   0  0  0  0  0  0  0  0  0  0  0  0
    0.2207    0.0007   -5.7092 C   0  0  0  0  0  0  0  0  0  0  0  0
   -0.8746   -0.7814   -5.3453 C   0  0  0  0  0  0  0  0  0  0  0  0
   -1.1335   -1.0272   -3.9985 C   0  0  0  0  0  0  0  0  0  0  0  0
   -0.3040   -0.4899   -3.0157 C   0  0  0  0  0  0  0  0  0  0  0  0
    1.4962    0.2239    2.4606 C   0  0  0  0  0  0  0  0  0  0  0  0
    2.2104   -0.2830    3.5553 C   0  0  0  0  0  0  0  0  0  0  0  0
    1.7415   -0.0811    4.8457 C   0  0  0  0  0  0  0  0  0  0  0  0
    0.5448    0.6271    5.0543 C   0  0  0  0  0  0  0  0  0  0  0  0
    0.1079    0.8928    6.3545 N   0  0  0  0  0  0  0  0  0  0  0  0
   -0.1734    1.1316    3.9539 C   0  0  0  0  0  0  0  0  0  0  0  0
    0.3034    0.9354    2.6679 C   0  0  0  0  0  0  0  0  0  0  0  0
    3.9012    0.9212    1.4155 H   0  0  0  0  0  0  0  0  0  0  0  0
    3.9300   -0.8569    1.1821 H   0  0  0  0  0  0  0  0  0  0  0  0
    3.1601    2.2409   -0.7614 H   0  0  0  0  0  0  0  0  0  0  0  0
    0.1303    1.8514   -1.3259 H   0  0  0  0  0  0  0  0  0  0  0  0
   -1.0286    3.7452   -1.9942 H   0  0  0  0  0  0  0  0  0  0  0  0
   -0.9966    5.9653   -3.0896 H   0  0  0  0  0  0  0  0  0  0  0  0
    1.0753    6.7919   -4.1737 H   0  0  0  0  0  0  0  0  0  0  0  0
    3.1310    5.4017   -4.1450 H   0  0  0  0  0  0  0  0  0  0  0  0
    3.1305    3.1950   -3.0378 H   0  0  0  0  0  0  0  0  0  0  0  0
    1.9021    1.1499   -5.0212 H   0  0  0  0  0  0  0  0  0  0  0  0
    0.4230    0.1986   -6.7598 H   0  0  0  0  0  0  0  0  0  0  0  0
   -1.5257   -1.1964   -6.1117 H   0  0  0  0  0  0  0  0  0  0  0  0
   -1.9873   -1.6373   -3.7083 H   0  0  0  0  0  0  0  0  0  0  0  0
   -0.5295   -0.6794   -1.9621 H   0  0  0  0  0  0  0  0  0  0  0  0
    3.1297   -0.8441    3.4006 H   0  0  0  0  0  0  0  0  0  0  0  0
    2.3012   -0.4668    5.6923 H   0  0  0  0  0  0  0  0  0  0  0  0
   -0.8402    1.1796    6.4826 H   0  0  0  0  0  0  0  0  0  0  0  0
    0.4794    0.3402    7.0982 H   0  0  0  0  0  0  0  0  0  0  0  0
   -1.0977    1.6818    4.1102 H   0  0  0  0  0  0  0  0  0  0  0  0
   -0.2569    1.3306    1.8161 H   0  0  0  0  0  0  0  0  0  0  0  0
  1  2  2  0  0  0  0
  2  3  1  0  0  0  0
  3 25  1  0  0  0  0
  4  3  1  0  0  0  0
  4 33  1  0  0  0  0
  4 32  1  0  0  0  0
  5  8  1  0  0  0  0
  5  4  1  0  0  0  0
  5  6  1  6  0  0  0
  7 34  1  0  0  0  0
  7  5  1  0  0  0  0
  8  9  1  6  0  0  0
  8  2  1  0  0  0  0
 10 11  1  6  0  0  0
 10 12  1  0  0  0  0
 10  8  1  0  0  0  0
 12 35  1  0  0  0  0
 13 12  1  0  0  0  0
 14 13  1  0  0  0  0
 14 36  1  0  0  0  0
 15 14  2  0  0  0  0
 16 17  2  0  0  0  0
 16 15  1  0  0  0  0
 17 18  1  0  0  0  0
 18 40  1  0  0  0  0
 18 13  2  0  0  0  0
 19 24  1  0  0  0  0
 19 10  1  0  0  0  0
 20 19  2  0  0  0  0
 21 22  2  0  0  0  0
 21 20  1  0  0  0  0
 22 23  1  0  0  0  0
 23 44  1  0  0  0  0
 23 24  2  0  0  0  0
 24 45  1  0  0  0  0
 25 31  2  0  0  0  0
 25 26  1  0  0  0  0
 26 27  2  0  0  0  0
 27 28  1  0  0  0  0
 27 47  1  0  0  0  0
 28 29  1  0  0  0  0
 29 48  1  0  0  0  0
 29 49  1  0  0  0  0
 30 50  1  0  0  0  0
 30 28  2  0  0  0  0
 31 30  1  0  0  0  0
 37 15  1  0  0  0  0
 38 16  1  0  0  0  0
 39 17  1  0  0  0  0
 41 20  1  0  0  0  0
 42 21  1  0  0  0  0
 43 22  1  0  0  0  0
 46 26  1  0  0  0  0
 51 31  1  0  0  0  0
M  END
$$$$
