rmsd169.gzmat
 OpenBabel08211713413D

 51 54  0  0  1  0  0  0  0  0999 V2000
    0.0000    0.0000    0.0000 O   0  0  0  0  0  0  0  0  0  0  0  0
    1.2102    0.0000    0.0000 C   0  0  0  0  0  0  0  0  0  0  0  0
    1.9851    0.0000    1.1480 N   0  0  0  0  0  0  0  0  0  0  0  0
    3.4262    0.1094    0.8628 C   0  0  0  0  0  0  0  0  0  0  0  0
    3.5238    0.3312   -0.6746 C   0  0  2  0  0  0  0  0  0  0  0  0
    4.3433   -0.2512   -1.1410 H   0  0  0  0  0  0  0  0  0  0  0  0
    3.8857    1.6544   -0.9288 O   0  0  0  0  0  0  0  0  0  0  0  0
    2.1195   -0.0362   -1.2266 C   0  0  2  0  0  0  0  0  0  0  0  0
    2.1280   -1.0839   -1.6181 H   0  0  0  0  0  0  0  0  0  0  0  0
    1.6858    0.9091   -2.3712 C   0  0  2  0  0  0  0  0  0  0  0  0
    2.6300    1.2625   -2.8864 H   0  0  0  0  0  0  0  0  0  0  0  0
    1.0129    2.0967   -1.7994 N   0  0  0  0  0  0  0  0  0  0  0  0
    0.8027    3.2056   -2.6520 C   0  0  0  0  0  0  0  0  0  0  0  0
   -0.3330    4.0062   -2.4277 C   0  0  0  0  0  0  0  0  0  0  0  0
   -0.5172    5.1635   -3.1731 C   0  0  0  0  0  0  0  0  0  0  0  0
    0.4107    5.5346   -4.1460 C   0  0  0  0  0  0  0  0  0  0  0  0
    1.5347    4.7412   -4.3656 C   0  0  0  0  0  0  0  0  0  0  0  0
    1.7389    3.5802   -3.6270 C   0  0  0  0  0  0  0  0  0  0  0  0
    0.8159    0.1883   -3.3788 C   0  0  0  0  0  0  0  0  0  0  0  0
   -0.4317   -0.3243   -3.0276 C   0  0  0  0  0  0  0  0  0  0  0  0
   -1.2248   -0.9476   -3.9884 C   0  0  0  0  0  0  0  0  0  0  0  0
   -0.7730   -1.0622   -5.3017 C   0  0  0  0  0  0  0  0  0  0  0  0
    0.4751   -0.5518   -5.6534 C   0  0  0  0  0  0  0  0  0  0  0  0
    1.2689    0.0728   -4.6943 C   0  0  0  0  0  0  0  0  0  0  0  0
    1.5040    0.1701    2.4677 C   0  0  0  0  0  0  0  0  0  0  0  0
    2.2552   -0.3268    3.5422 C   0  0  0  0  0  0  0  0  0  0  0  0
    1.8012   -0.1658    4.8435 C   0  0  0  0  0  0  0  0  0  0  0  0
    0.5820    0.4924    5.0840 C   0  0  0  0  0  0  0  0  0  0  0  0
    0.1611    0.7283    6.3949 N   0  0  0  0  0  0  0  0  0  0  0  0
   -0.1773    0.9789    4.0036 C   0  0  0  0  0  0  0  0  0  0  0  0
    0.2842    0.8227    2.7065 C   0  0  0  0  0  0  0  0  0  0  0  0
    3.8830    0.9623    1.4104 H   0  0  0  0  0  0  0  0  0  0  0  0
    3.9520   -0.8152    1.1729 H   0  0  0  0  0  0  0  0  0  0  0  0
    3.1132    2.2669   -0.8293 H   0  0  0  0  0  0  0  0  0  0  0  0
    0.1825    1.8300   -1.2567 H   0  0  0  0  0  0  0  0  0  0  0  0
   -1.0636    3.7202   -1.6755 H   0  0  0  0  0  0  0  0  0  0  0  0
   -1.3955    5.7837   -2.9979 H   0  0  0  0  0  0  0  0  0  0  0  0
    0.2579    6.4375   -4.7286 H   0  0  0  0  0  0  0  0  0  0  0  0
    2.2626    5.0307   -5.1223 H   0  0  0  0  0  0  0  0  0  0  0  0
    2.6254    2.9792   -3.8053 H   0  0  0  0  0  0  0  0  0  0  0  0
   -0.7959   -0.2432   -1.9995 H   0  0  0  0  0  0  0  0  0  0  0  0
   -2.1996   -1.3441   -3.7098 H   0  0  0  0  0  0  0  0  0  0  0  0
   -1.3943   -1.5472   -6.0516 H   0  0  0  0  0  0  0  0  0  0  0  0
    0.8293   -0.6382   -6.6781 H   0  0  0  0  0  0  0  0  0  0  0  0
    2.2385    0.4758   -4.9805 H   0  0  0  0  0  0  0  0  0  0  0  0
    3.1932   -0.8480    3.3639 H   0  0  0  0  0  0  0  0  0  0  0  0
    2.3903   -0.5434    5.6735 H   0  0  0  0  0  0  0  0  0  0  0  0
   -0.7961    0.9704    6.5453 H   0  0  0  0  0  0  0  0  0  0  0  0
    0.5731    0.1883    7.1264 H   0  0  0  0  0  0  0  0  0  0  0  0
   -1.1217    1.4852    4.1845 H   0  0  0  0  0  0  0  0  0  0  0  0
   -0.3095    1.2036    1.8710 H   0  0  0  0  0  0  0  0  0  0  0  0
  1  2  2  0  0  0  0
  2  3  1  0  0  0  0
  3 25  1  0  0  0  0
  4  3  1  0  0  0  0
  4 33  1  0  0  0  0
  4 32  1  0  0  0  0
  5  8  1  0  0  0  0
  5  4  1  0  0  0  0
  5  6  1  6  0  0  0
  7 34  1  0  0  0  0
  7  5  1  0  0  0  0
  8  9  1  6  0  0  0
  8  2  1  0  0  0  0
 10 11  1  6  0  0  0
 10 12  1  0  0  0  0
 10  8  1  0  0  0  0
 12 35  1  0  0  0  0
 13 14  1  0  0  0  0
 13 12  1  0  0  0  0
 14 36  1  0  0  0  0
 15 37  1  0  0  0  0
 15 14  2  0  0  0  0
 16 15  1  0  0  0  0
 17 16  2  0  0  0  0
 17 18  1  0  0  0  0
 18 13  2  0  0  0  0
 19 20  1  0  0  0  0
 19 10  1  0  0  0  0
 20 41  1  0  0  0  0
 21 42  1  0  0  0  0
 21 20  2  0  0  0  0
 22 21  1  0  0  0  0
 23 22  2  0  0  0  0
 23 24  1  0  0  0  0
 24 19  2  0  0  0  0
 25 31  2  0  0  0  0
 25 26  1  0  0  0  0
 26 27  2  0  0  0  0
 27 28  1  0  0  0  0
 27 47  1  0  0  0  0
 28 29  1  0  0  0  0
 29 48  1  0  0  0  0
 29 49  1  0  0  0  0
 30 50  1  0  0  0  0
 30 28  2  0  0  0  0
 31 30  1  0  0  0  0
 38 16  1  0  0  0  0
 39 17  1  0  0  0  0
 40 18  1  0  0  0  0
 43 22  1  0  0  0  0
 44 23  1  0  0  0  0
 45 24  1  0  0  0  0
 46 26  1  0  0  0  0
 51 31  1  0  0  0  0
M  END
$$$$
