51
rmsd162.gzmat
O          0.00000        0.00000        0.00000
C          1.20980        0.00000        0.00000
N          1.98250        0.00000        1.15080
C          3.42560        0.07860        0.86860
C          3.53000        0.29560       -0.66910
H          4.34100       -0.29830       -1.13460
O          3.91050        1.61450       -0.92350
C          2.12060       -0.04670       -1.22590
H          2.11380       -1.08630       -1.63310
C          1.69750        0.93110       -2.34650
H          2.64380        1.27510       -2.86200
N          1.04270        2.10470       -1.72350
C          1.04450        3.31550       -2.45470
C         -0.11770        4.10660       -2.46400
C         -0.09630        5.35180       -3.08060
C          1.06690        5.81930       -3.69120
C          2.21880        5.03460       -3.67660
C          2.21810        3.78710       -3.06250
C          0.79430        0.28760       -3.37760
C          1.05380        0.53310       -4.72850
C          0.22070        0.00070       -5.70920
C         -0.87460       -0.78140       -5.34530
C         -1.13350       -1.02720       -3.99850
C         -0.30400       -0.48990       -3.01570
C          1.49620        0.22390        2.46060
C          2.21040       -0.28300        3.55530
C          1.74150       -0.08110        4.84570
C          0.54480        0.62710        5.05430
N          0.10790        0.89280        6.35450
C         -0.17340        1.13160        3.95390
C          0.30340        0.93540        2.66790
H          3.90120        0.92120        1.41550
H          3.93000       -0.85690        1.18210
H          3.16010        2.24090       -0.76140
H          0.13030        1.85140       -1.32590
H         -1.02860        3.74520       -1.99420
H         -0.99660        5.96530       -3.08960
H          1.07530        6.79190       -4.17370
H          3.13100        5.40170       -4.14500
H          3.13050        3.19500       -3.03780
H          1.90210        1.14990       -5.02120
H          0.42300        0.19860       -6.75980
H         -1.52570       -1.19640       -6.11170
H         -1.98730       -1.63730       -3.70830
H         -0.52950       -0.67940       -1.96210
H          3.12970       -0.84410        3.40060
H          2.30120       -0.46680        5.69230
H         -0.84020        1.17960        6.48260
H          0.47940        0.34020        7.09820
H         -1.09770        1.68180        4.11020
H         -0.25690        1.33060        1.81610
