51
rmsd134.gzmat
O          0.00000        0.00000        0.00000
C          1.20970        0.00000        0.00000
N          1.98890        0.00000        1.14700
C          3.42990        0.09370        0.85430
C          3.52200        0.31940       -0.68170
H          4.34230       -0.25560       -1.15450
O          3.87290        1.64710       -0.93170
C          2.11640       -0.05150       -1.22870
H          2.12170       -1.10010       -1.61480
C          1.69170        0.89460       -2.37290
H          2.64230        1.22890       -2.88950
N          1.03390        2.08900       -1.79110
C          0.96470        3.23250       -2.62610
C         -0.23210        3.96540       -2.68710
C         -0.28130        5.13840       -3.43140
C          0.84390        5.58520       -4.12270
C          2.03260        4.86070       -4.05220
C          2.10440        3.69070       -3.30460
C          0.80170        0.22410       -3.39760
C          1.06200        0.46360       -4.74950
C          0.25350       -0.10580       -5.72940
C         -0.81810       -0.91890       -5.36290
C         -1.08430       -1.14930       -4.01520
C         -0.28080       -0.57320       -3.03300
C          1.52080        0.18980        2.46820
C          2.30080       -0.25640        3.54520
C          1.86040       -0.07320        4.84840
C          0.62690        0.55700        5.08920
N          0.22080        0.82080        6.39940
C         -0.16210        0.99010        4.00710
C          0.28600        0.81330        2.70810
H          3.89940        0.94020        1.40090
H          3.94610       -0.83830        1.15940
H          3.10010        2.25460       -0.80050
H          0.14180        1.83860       -1.34780
H         -1.11640        3.61460       -2.16140
H         -1.20810        5.70890       -3.47760
H          0.79590        6.49540       -4.71250
H          2.91420        5.21500       -4.58460
H          3.04480        3.14860       -3.23370
H          1.89000        1.10740       -5.04310
H          0.45650        0.08720       -6.78060
H         -1.44690       -1.36800       -6.12870
H         -1.92430       -1.77830       -3.72540
H         -0.51520       -0.74410       -1.97890
H          3.25210       -0.75440        3.36930
H          2.47120       -0.41090        5.68030
H         -0.73850        1.04890        6.55760
H          0.65720        0.31330        7.13990
H         -1.11900        1.47250        4.18780
H         -0.32990        1.15690        1.87220
