51
rmsd182.gzmat
O          0.00000        0.00000        0.00000
C          1.21010        0.00000        0.00000
N          1.98090        0.00000        1.15060
C          3.42240        0.11600        0.87550
C          3.52630        0.32930       -0.66350
H          4.34870       -0.25420       -1.12300
O          3.88650        1.65220       -0.92300
C          2.12430       -0.04100       -1.22230
H          2.13490       -1.08910       -1.61100
C          1.69570        0.90210       -2.36940
H          2.64080        1.24280       -2.89020
N          1.03410        2.09630       -1.79370
C          0.91010        3.22610       -2.64030
C         -0.28820        3.96090       -2.61960
C         -0.39150        5.12930       -3.36500
C          0.68270        5.57420       -4.13450
C          1.87080        4.84580       -4.15000
C          1.99500        3.67670       -3.40720
C          0.80960        0.20130       -3.37830
C          1.20780        0.18360       -4.71670
C          0.39570       -0.41000       -5.68020
C         -0.81850       -0.98620       -5.31090
C         -1.21700       -0.96780       -3.97580
C         -0.40430       -0.37690       -3.01060
C          1.48190        0.13540        2.46750
C          2.18470       -0.44060        3.53490
C          1.69470       -0.33230        4.82860
C          0.48910        0.35120        5.06710
N          0.02870        0.52130        6.37520
C         -0.21580        0.92730        3.99350
C          0.28190        0.82450        2.70460
H          3.86910        0.97600        1.42010
H          3.95420       -0.80170        1.19550
H          3.11430        2.26430       -0.81460
H          0.16290        1.84020       -1.31310
H         -1.13180        3.61540       -2.02800
H         -1.32050        5.69830       -3.35120
H          0.59520        6.48580       -4.71770
H          2.71190        5.19590       -4.74670
H          2.93450        3.12990       -3.41090
H          2.14840        0.64220       -5.01650
H          0.70720       -0.41840       -6.72250
H         -1.45430       -1.44730       -6.06370
H         -2.16670       -1.41280       -3.68380
H         -0.72890       -0.37040       -1.96600
H          3.11130       -0.98250        3.35630
H          2.24390       -0.77310        5.65490
H         -0.92570        0.78550        6.50650
H          0.39350       -0.07990        7.08380
H         -1.14650        1.45890        4.17320
H         -0.26820        1.27350        1.87280
