40
rmsd29.gzmat
N          0.00000        0.00000        0.00000
H          0.99290        0.00000        0.00000
C         -0.81840        0.00000       -1.13480
C         -2.14890       -0.07970       -0.75180
C         -2.17430       -0.13070        0.68550
C         -3.19460       -0.22030        1.63820
C         -2.85360       -0.25050        2.97760
C         -1.50620       -0.18930        3.39680
C         -0.46990       -0.10790        2.48710
C         -0.81230       -0.08120        1.12670
C         -3.33750       -0.12960       -1.62860
C         -3.15430       -1.10670       -2.81420
N         -2.65890       -2.41040       -2.36340
C         -3.54130       -3.45940       -2.17620
O         -4.67750       -3.41890       -2.60170
C         -2.97650       -4.69460       -1.49050
C         -2.09060       -4.32390       -0.34640
C         -0.70040       -4.39870       -0.47650
C          0.12890       -3.97040        0.55240
C         -0.46480       -3.46530        1.71300
C         -1.85040       -3.41290        1.88090
C         -2.65930       -3.84980        0.83880
O          0.39670       -3.03450        2.67100
H         -0.39550        0.06410       -2.11920
H         -4.23360       -0.26510        1.31810
H         -3.63300       -0.31320        3.73400
H         -1.29200       -0.19360        4.46480
H          0.56760       -0.05960        2.79980
H         -3.57210        0.88370       -2.01990
H         -4.23420       -0.43390       -1.04520
H         -2.42510       -0.69470       -3.54670
H         -4.12290       -1.23620       -3.35310
H         -1.79540       -2.37460       -1.83250
H         -2.45010       -5.31480       -2.24650
H         -3.82760       -5.32820       -1.15000
H         -0.26000       -4.78970       -1.39350
H          1.21100       -4.01540        0.47220
H         -2.28730       -3.01800        2.79360
H         -3.74440       -3.80630        0.94160
H         -0.07210       -2.53420        3.38650
