40

N          0.00310        0.37040       -0.19110
H          1.00010        0.54140       -0.22380
C         -0.84620        0.38370       -1.27970
C         -2.07110       -0.14700       -0.94060
C         -1.95900       -0.55450        0.44470
C         -2.82270       -1.18760        1.35890
C         -2.35930       -1.48920        2.63670
C         -1.04590       -1.15880        3.03330
C         -0.17160       -0.51670        2.15910
C         -0.63640       -0.22410        0.87110
C         -3.23720       -0.33700       -1.86950
C         -3.69150       -1.80740       -1.99020
N         -2.57180       -2.71110       -2.11780
C         -2.29690       -3.43990       -3.23370
O         -3.02820       -3.50070       -4.20700
C         -0.98260       -4.24640       -3.16130
C          0.06650       -3.62640       -2.27620
C          0.93170       -2.63890       -2.77360
C          1.77630       -1.92210       -1.93020
C          1.75640       -2.16770       -0.55210
C          0.93490       -3.17590       -0.04020
C          0.10810       -3.90000       -0.90120
O          2.52230       -1.36980        0.24840
H         -0.51180        0.77110       -2.24000
H         -3.84500       -1.44280        1.07210
H         -3.02330       -1.98440        3.34890
H         -0.71400       -1.40030        4.04590
H          0.83790       -0.23720        2.47050
H         -2.95330        0.03330       -2.86740
H         -4.10420        0.26460       -1.54310
H         -4.32600       -1.94560       -2.87640
H         -4.29090       -2.08930       -1.10760
H         -1.84710       -2.63540       -1.41220
H         -0.63880       -4.35180       -4.19950
H         -1.24950       -5.25680       -2.80870
H          0.92520       -2.41200       -3.84300
H          2.43900       -1.14610       -2.31890
H          0.91430       -3.37160        1.03510
H         -0.54640       -4.67030       -0.48440
H          2.41260       -1.64980        1.16720
