rmsd246.gzmat
 OpenBabel08211713413D

 40 42  0  0  0  0  0  0  0  0999 V2000
    0.0000    0.0000    0.0000 N   0  0  0  0  0  0  0  0  0  0  0  0
    0.9916    0.0000    0.0000 H   0  0  0  0  0  0  0  0  0  0  0  0
   -0.8198    0.0000   -1.1334 C   0  0  0  0  0  0  0  0  0  0  0  0
   -2.1504   -0.0203   -0.7451 C   0  0  0  0  0  0  0  0  0  0  0  0
   -2.1767   -0.0287    0.6931 C   0  0  0  0  0  0  0  0  0  0  0  0
   -3.1974   -0.0318    1.6499 C   0  0  0  0  0  0  0  0  0  0  0  0
   -2.8528   -0.0342    2.9881 C   0  0  0  0  0  0  0  0  0  0  0  0
   -1.5031   -0.0402    3.4027 C   0  0  0  0  0  0  0  0  0  0  0  0
   -0.4672   -0.0321    2.4894 C   0  0  0  0  0  0  0  0  0  0  0  0
   -0.8138   -0.0207    1.1306 C   0  0  0  0  0  0  0  0  0  0  0  0
   -3.3291   -0.0654   -1.6330 C   0  0  0  0  0  0  0  0  0  0  0  0
   -3.5650   -1.5018   -2.1537 C   0  0  0  0  0  0  0  0  0  0  0  0
   -3.8847   -2.4114   -1.0486 N   0  0  0  0  0  0  0  0  0  0  0  0
   -5.1004   -3.0562   -1.0109 C   0  0  0  0  0  0  0  0  0  0  0  0
   -5.8774   -3.0038   -1.9441 O   0  0  0  0  0  0  0  0  0  0  0  0
   -5.3814   -3.8792    0.2349 C   0  0  0  0  0  0  0  0  0  0  0  0
   -5.5589   -3.0006    1.4300 C   0  0  0  0  0  0  0  0  0  0  0  0
   -4.8647   -3.2745    2.6135 C   0  0  0  0  0  0  0  0  0  0  0  0
   -5.0384   -2.4715    3.7330 C   0  0  0  0  0  0  0  0  0  0  0  0
   -5.9155   -1.3854    3.6414 C   0  0  0  0  0  0  0  0  0  0  0  0
   -6.6197   -1.0900    2.4733 C   0  0  0  0  0  0  0  0  0  0  0  0
   -6.4353   -1.9146    1.3676 C   0  0  0  0  0  0  0  0  0  0  0  0
   -6.0220   -0.6322    4.7685 O   0  0  0  0  0  0  0  0  0  0  0  0
   -0.3987    0.0159   -2.1203 H   0  0  0  0  0  0  0  0  0  0  0  0
   -4.2400   -0.0350    1.3363 H   0  0  0  0  0  0  0  0  0  0  0  0
   -3.6315   -0.0365    3.7517 H   0  0  0  0  0  0  0  0  0  0  0  0
   -1.2857   -0.0504    4.4705 H   0  0  0  0  0  0  0  0  0  0  0  0
    0.5699   -0.0320    2.8024 H   0  0  0  0  0  0  0  0  0  0  0  0
   -3.2041    0.6208   -2.4959 H   0  0  0  0  0  0  0  0  0  0  0  0
   -4.2363    0.2945   -1.1021 H   0  0  0  0  0  0  0  0  0  0  0  0
   -2.6522   -1.8784   -2.6680 H   0  0  0  0  0  0  0  0  0  0  0  0
   -4.3905   -1.5084   -2.9050 H   0  0  0  0  0  0  0  0  0  0  0  0
   -3.2915   -2.3396   -0.2339 H   0  0  0  0  0  0  0  0  0  0  0  0
   -4.5820   -4.6339    0.3808 H   0  0  0  0  0  0  0  0  0  0  0  0
   -6.3109   -4.4725    0.0596 H   0  0  0  0  0  0  0  0  0  0  0  0
   -4.1812   -4.1217    2.6623 H   0  0  0  0  0  0  0  0  0  0  0  0
   -4.5100   -2.6658    4.6626 H   0  0  0  0  0  0  0  0  0  0  0  0
   -7.2959   -0.2436    2.4259 H   0  0  0  0  0  0  0  0  0  0  0  0
   -6.9798   -1.7124    0.4420 H   0  0  0  0  0  0  0  0  0  0  0  0
   -6.6629    0.1112    4.6620 H   0  0  0  0  0  0  0  0  0  0  0  0
  1  2  1  0  0  0  0
  1 10  1  0  0  0  0
  3  4  2  0  0  0  0
  3  1  1  0  0  0  0
  4  5  1  0  0  0  0
  5 10  2  0  0  0  0
  5  6  1  0  0  0  0
  6  7  2  0  0  0  0
  7  8  1  0  0  0  0
  7 26  1  0  0  0  0
  8 27  1  0  0  0  0
  9 28  1  0  0  0  0
  9  8  2  0  0  0  0
 10  9  1  0  0  0  0
 11 30  1  0  0  0  0
 11  4  1  0  0  0  0
 12 11  1  0  0  0  0
 12 13  1  0  0  0  0
 13 14  1  0  0  0  0
 13 33  1  0  0  0  0
 14 16  1  0  0  0  0
 15 14  2  0  0  0  0
 16 34  1  0  0  0  0
 16 17  1  0  0  0  0
 17 18  1  0  0  0  0
 18 36  1  0  0  0  0
 18 19  2  0  0  0  0
 19 37  1  0  0  0  0
 20 19  1  0  0  0  0
 20 23  1  0  0  0  0
 21 20  2  0  0  0  0
 22 17  2  0  0  0  0
 22 21  1  0  0  0  0
 24  3  1  0  0  0  0
 25  6  1  0  0  0  0
 29 11  1  0  0  0  0
 31 12  1  0  0  0  0
 32 12  1  0  0  0  0
 35 16  1  0  0  0  0
 38 21  1  0  0  0  0
 39 22  1  0  0  0  0
 40 23  1  0  0  0  0
M  END
$$$$
