rmsd29.gzmat
 OpenBabel08211713413D

 40 42  0  0  0  0  0  0  0  0999 V2000
    0.0000    0.0000    0.0000 N   0  0  0  0  0  0  0  0  0  0  0  0
    0.9929    0.0000    0.0000 H   0  0  0  0  0  0  0  0  0  0  0  0
   -0.8184    0.0000   -1.1348 C   0  0  0  0  0  0  0  0  0  0  0  0
   -2.1489   -0.0797   -0.7518 C   0  0  0  0  0  0  0  0  0  0  0  0
   -2.1743   -0.1307    0.6855 C   0  0  0  0  0  0  0  0  0  0  0  0
   -3.1946   -0.2203    1.6382 C   0  0  0  0  0  0  0  0  0  0  0  0
   -2.8536   -0.2505    2.9776 C   0  0  0  0  0  0  0  0  0  0  0  0
   -1.5062   -0.1893    3.3968 C   0  0  0  0  0  0  0  0  0  0  0  0
   -0.4699   -0.1079    2.4871 C   0  0  0  0  0  0  0  0  0  0  0  0
   -0.8123   -0.0812    1.1267 C   0  0  0  0  0  0  0  0  0  0  0  0
   -3.3375   -0.1296   -1.6286 C   0  0  0  0  0  0  0  0  0  0  0  0
   -3.1543   -1.1067   -2.8142 C   0  0  0  0  0  0  0  0  0  0  0  0
   -2.6589   -2.4104   -2.3634 N   0  0  0  0  0  0  0  0  0  0  0  0
   -3.5413   -3.4594   -2.1762 C   0  0  0  0  0  0  0  0  0  0  0  0
   -4.6775   -3.4189   -2.6017 O   0  0  0  0  0  0  0  0  0  0  0  0
   -2.9765   -4.6946   -1.4905 C   0  0  0  0  0  0  0  0  0  0  0  0
   -2.0906   -4.3239   -0.3464 C   0  0  0  0  0  0  0  0  0  0  0  0
   -0.7004   -4.3987   -0.4765 C   0  0  0  0  0  0  0  0  0  0  0  0
    0.1289   -3.9704    0.5524 C   0  0  0  0  0  0  0  0  0  0  0  0
   -0.4648   -3.4653    1.7130 C   0  0  0  0  0  0  0  0  0  0  0  0
   -1.8504   -3.4129    1.8809 C   0  0  0  0  0  0  0  0  0  0  0  0
   -2.6593   -3.8498    0.8388 C   0  0  0  0  0  0  0  0  0  0  0  0
    0.3967   -3.0345    2.6710 O   0  0  0  0  0  0  0  0  0  0  0  0
   -0.3955    0.0641   -2.1192 H   0  0  0  0  0  0  0  0  0  0  0  0
   -4.2336   -0.2651    1.3181 H   0  0  0  0  0  0  0  0  0  0  0  0
   -3.6330   -0.3132    3.7340 H   0  0  0  0  0  0  0  0  0  0  0  0
   -1.2920   -0.1936    4.4648 H   0  0  0  0  0  0  0  0  0  0  0  0
    0.5676   -0.0596    2.7998 H   0  0  0  0  0  0  0  0  0  0  0  0
   -3.5721    0.8837   -2.0199 H   0  0  0  0  0  0  0  0  0  0  0  0
   -4.2342   -0.4339   -1.0452 H   0  0  0  0  0  0  0  0  0  0  0  0
   -2.4251   -0.6947   -3.5467 H   0  0  0  0  0  0  0  0  0  0  0  0
   -4.1229   -1.2362   -3.3531 H   0  0  0  0  0  0  0  0  0  0  0  0
   -1.7954   -2.3746   -1.8325 H   0  0  0  0  0  0  0  0  0  0  0  0
   -2.4501   -5.3148   -2.2465 H   0  0  0  0  0  0  0  0  0  0  0  0
   -3.8276   -5.3282   -1.1500 H   0  0  0  0  0  0  0  0  0  0  0  0
   -0.2600   -4.7897   -1.3935 H   0  0  0  0  0  0  0  0  0  0  0  0
    1.2110   -4.0154    0.4722 H   0  0  0  0  0  0  0  0  0  0  0  0
   -2.2873   -3.0180    2.7936 H   0  0  0  0  0  0  0  0  0  0  0  0
   -3.7444   -3.8063    0.9416 H   0  0  0  0  0  0  0  0  0  0  0  0
   -0.0721   -2.5342    3.3865 H   0  0  0  0  0  0  0  0  0  0  0  0
  1 10  1  0  0  0  0
  2  1  1  0  0  0  0
  3  4  2  0  0  0  0
  3  1  1  0  0  0  0
  4  5  1  0  0  0  0
  5 10  2  0  0  0  0
  5  6  1  0  0  0  0
  6  7  2  0  0  0  0
  7  8  1  0  0  0  0
  7 26  1  0  0  0  0
  8 27  1  0  0  0  0
  9 28  1  0  0  0  0
  9  8  2  0  0  0  0
 10  9  1  0  0  0  0
 11 30  1  0  0  0  0
 11  4  1  0  0  0  0
 12 13  1  0  0  0  0
 12 11  1  0  0  0  0
 13 14  1  0  0  0  0
 13 33  1  0  0  0  0
 14 16  1  0  0  0  0
 15 14  2  0  0  0  0
 16 35  1  0  0  0  0
 16 17  1  0  0  0  0
 17 22  1  0  0  0  0
 18 17  2  0  0  0  0
 18 19  1  0  0  0  0
 19 20  2  0  0  0  0
 20 21  1  0  0  0  0
 20 23  1  0  0  0  0
 21 38  1  0  0  0  0
 22 39  1  0  0  0  0
 22 21  2  0  0  0  0
 23 40  1  0  0  0  0
 24  3  1  0  0  0  0
 25  6  1  0  0  0  0
 29 11  1  0  0  0  0
 31 12  1  0  0  0  0
 32 12  1  0  0  0  0
 34 16  1  0  0  0  0
 36 18  1  0  0  0  0
 37 19  1  0  0  0  0
M  END
$$$$
