40

N         -0.05200       -0.21320        0.26510
H          0.94660       -0.36060        0.31600
C         -0.81760       -0.33270       -0.88220
C         -2.15790       -0.24720       -0.57010
C         -2.22130       -0.08860        0.86430
C         -3.28010       -0.00250        1.78580
C         -2.99170        0.08210        3.14510
C         -1.65670        0.10400        3.60660
C         -0.58490        0.03330        2.71770
C         -0.88090       -0.07450        1.35130
C         -3.33500       -0.32320       -1.50290
C         -3.07560       -1.12810       -2.78490
N         -2.65990       -2.48880       -2.50600
C         -3.57380       -3.48840       -2.30620
O         -4.74650       -3.39970       -2.62420
C         -2.98960       -4.74680       -1.64160
C         -2.04070       -4.39100       -0.52300
C         -0.65200       -4.53900       -0.64970
C          0.22400       -4.03720        0.31550
C         -0.28330       -3.36730        1.43480
C         -1.67060       -3.24600        1.59670
C         -2.52970       -3.75030        0.62580
O          0.59640       -2.83840        2.32520
H         -0.33370       -0.46480       -1.84790
H         -4.31640       -0.01490        1.43990
H         -3.80710        0.14180        3.86930
H         -1.46120        0.19040        4.67810
H          0.44870        0.07030        3.07050
H         -3.67280        0.69190       -1.78170
H         -4.18250       -0.78880       -0.97320
H         -2.30650       -0.63550       -3.40280
H         -3.99640       -1.18170       -3.38080
H         -1.78080       -2.59400       -2.01040
H         -2.47680       -5.34470       -2.41270
H         -3.85220       -5.33060       -1.29150
H         -0.24370       -5.04100       -1.53160
H          1.30550       -4.14230        0.20890
H         -2.07300       -2.72140        2.46680
H         -3.60730       -3.60930        0.74570
H          0.10280       -2.30270        2.96410
