rmsd201.gzmat
 OpenBabel08211713413D

 40 42  0  0  0  0  0  0  0  0999 V2000
    0.0000    0.0000    0.0000 N   0  0  0  0  0  0  0  0  0  0  0  0
    0.9989    0.0000    0.0000 H   0  0  0  0  0  0  0  0  0  0  0  0
   -0.7963    0.0000   -1.1517 C   0  0  0  0  0  0  0  0  0  0  0  0
   -2.1043   -0.3124   -0.8192 C   0  0  0  0  0  0  0  0  0  0  0  0
   -2.1402   -0.5391    0.6012 C   0  0  0  0  0  0  0  0  0  0  0  0
   -3.1503   -0.8723    1.5089 C   0  0  0  0  0  0  0  0  0  0  0  0
   -2.8193   -1.0353    2.8416 C   0  0  0  0  0  0  0  0  0  0  0  0
   -1.4934   -0.8668    3.2964 C   0  0  0  0  0  0  0  0  0  0  0  0
   -0.4704   -0.5269    2.4320 C   0  0  0  0  0  0  0  0  0  0  0  0
   -0.8025   -0.3622    1.0806 C   0  0  0  0  0  0  0  0  0  0  0  0
   -3.2359   -0.4555   -1.7577 C   0  0  0  0  0  0  0  0  0  0  0  0
   -3.7015   -1.9311   -1.8469 C   0  0  0  0  0  0  0  0  0  0  0  0
   -2.5654   -2.8488   -1.9799 N   0  0  0  0  0  0  0  0  0  0  0  0
   -2.2091   -3.3394   -3.2198 C   0  0  0  0  0  0  0  0  0  0  0  0
   -2.9321   -3.2181   -4.1877 O   0  0  0  0  0  0  0  0  0  0  0  0
   -0.9079   -4.1294   -3.2907 C   0  0  0  0  0  0  0  0  0  0  0  0
    0.1721   -3.5038   -2.4722 C   0  0  0  0  0  0  0  0  0  0  0  0
    0.8896   -2.4169   -2.9853 C   0  0  0  0  0  0  0  0  0  0  0  0
    1.8344   -1.7648   -2.2039 C   0  0  0  0  0  0  0  0  0  0  0  0
    2.0426   -2.2233   -0.8994 C   0  0  0  0  0  0  0  0  0  0  0  0
    1.3775   -3.3329   -0.3791 C   0  0  0  0  0  0  0  0  0  0  0  0
    0.4377   -3.9719   -1.1830 C   0  0  0  0  0  0  0  0  0  0  0  0
    2.9015   -1.4721   -0.1547 O   0  0  0  0  0  0  0  0  0  0  0  0
   -0.3740    0.2332   -2.1118 H   0  0  0  0  0  0  0  0  0  0  0  0
   -4.1734   -0.9940    1.1628 H   0  0  0  0  0  0  0  0  0  0  0  0
   -3.5891   -1.2951    3.5647 H   0  0  0  0  0  0  0  0  0  0  0  0
   -1.2839   -1.0057    4.3561 H   0  0  0  0  0  0  0  0  0  0  0  0
    0.5461   -0.3830    2.7778 H   0  0  0  0  0  0  0  0  0  0  0  0
   -2.9581   -0.0956   -2.7706 H   0  0  0  0  0  0  0  0  0  0  0  0
   -4.0905    0.1775   -1.4403 H   0  0  0  0  0  0  0  0  0  0  0  0
   -4.3970   -2.0602   -2.7088 H   0  0  0  0  0  0  0  0  0  0  0  0
   -4.2576   -2.2121   -0.9239 H   0  0  0  0  0  0  0  0  0  0  0  0
   -1.8791   -2.7835   -1.2368 H   0  0  0  0  0  0  0  0  0  0  0  0
   -0.6095   -4.2082   -4.3615 H   0  0  0  0  0  0  0  0  0  0  0  0
   -1.1128   -5.1772   -2.9823 H   0  0  0  0  0  0  0  0  0  0  0  0
    0.6967   -2.0732   -4.0026 H   0  0  0  0  0  0  0  0  0  0  0  0
    2.4043   -0.9196   -2.5819 H   0  0  0  0  0  0  0  0  0  0  0  0
    1.5712   -3.6832    0.6293 H   0  0  0  0  0  0  0  0  0  0  0  0
   -0.1012   -4.8371   -0.7948 H   0  0  0  0  0  0  0  0  0  0  0  0
    3.1398   -1.9101    0.6973 H   0  0  0  0  0  0  0  0  0  0  0  0
  1  2  1  0  0  0  0
  1 10  1  0  0  0  0
  3  4  2  0  0  0  0
  3  1  1  0  0  0  0
  4  5  1  0  0  0  0
  5 10  2  0  0  0  0
  5  6  1  0  0  0  0
  6  7  2  0  0  0  0
  7  8  1  0  0  0  0
  7 26  1  0  0  0  0
  8 27  1  0  0  0  0
  9 28  1  0  0  0  0
  9  8  2  0  0  0  0
 10  9  1  0  0  0  0
 11 30  1  0  0  0  0
 11  4  1  0  0  0  0
 12 11  1  0  0  0  0
 12 32  1  0  0  0  0
 13 12  1  0  0  0  0
 13 33  1  0  0  0  0
 14 13  1  0  0  0  0
 15 14  2  0  0  0  0
 16 14  1  0  0  0  0
 16 35  1  0  0  0  0
 16 17  1  0  0  0  0
 17 22  1  0  0  0  0
 18 17  2  0  0  0  0
 18 19  1  0  0  0  0
 19 20  2  0  0  0  0
 20 21  1  0  0  0  0
 20 23  1  0  0  0  0
 21 38  1  0  0  0  0
 22 39  1  0  0  0  0
 22 21  2  0  0  0  0
 23 40  1  0  0  0  0
 24  3  1  0  0  0  0
 25  6  1  0  0  0  0
 29 11  1  0  0  0  0
 31 12  1  0  0  0  0
 34 16  1  0  0  0  0
 36 18  1  0  0  0  0
 37 19  1  0  0  0  0
M  END
$$$$
