rmsd195.gzmat
 OpenBabel08211713413D

 40 42  0  0  0  0  0  0  0  0999 V2000
    0.0000    0.0000    0.0000 N   0  0  0  0  0  0  0  0  0  0  0  0
    0.9929    0.0000    0.0000 H   0  0  0  0  0  0  0  0  0  0  0  0
   -0.8183    0.0000   -1.1346 C   0  0  0  0  0  0  0  0  0  0  0  0
   -2.1487   -0.0786   -0.7512 C   0  0  0  0  0  0  0  0  0  0  0  0
   -2.1745   -0.1257    0.6863 C   0  0  0  0  0  0  0  0  0  0  0  0
   -3.1950   -0.2070    1.6396 C   0  0  0  0  0  0  0  0  0  0  0  0
   -2.8541   -0.2326    2.9793 C   0  0  0  0  0  0  0  0  0  0  0  0
   -1.5063   -0.1755    3.3976 C   0  0  0  0  0  0  0  0  0  0  0  0
   -0.4703   -0.1013    2.4873 C   0  0  0  0  0  0  0  0  0  0  0  0
   -0.8125   -0.0772    1.1268 C   0  0  0  0  0  0  0  0  0  0  0  0
   -3.3365   -0.1317   -1.6282 C   0  0  0  0  0  0  0  0  0  0  0  0
   -3.1465   -1.1015   -2.8188 C   0  0  0  0  0  0  0  0  0  0  0  0
   -2.6370   -2.4024   -2.3760 N   0  0  0  0  0  0  0  0  0  0  0  0
   -3.5075   -3.4630   -2.1993 C   0  0  0  0  0  0  0  0  0  0  0  0
   -4.6407   -3.4344   -2.6336 O   0  0  0  0  0  0  0  0  0  0  0  0
   -2.9338   -4.6940   -1.5135 C   0  0  0  0  0  0  0  0  0  0  0  0
   -2.0590   -4.3184   -0.3624 C   0  0  0  0  0  0  0  0  0  0  0  0
   -0.6674   -4.3921   -0.4773 C   0  0  0  0  0  0  0  0  0  0  0  0
    0.1505   -3.9594    0.5590 C   0  0  0  0  0  0  0  0  0  0  0  0
   -0.4565   -3.4527    1.7121 C   0  0  0  0  0  0  0  0  0  0  0  0
   -1.8439   -3.4015    1.8653 C   0  0  0  0  0  0  0  0  0  0  0  0
   -2.6410   -3.8415    0.8156 C   0  0  0  0  0  0  0  0  0  0  0  0
    0.3938   -3.0193    2.6791 O   0  0  0  0  0  0  0  0  0  0  0  0
   -0.3959    0.0636   -2.1197 H   0  0  0  0  0  0  0  0  0  0  0  0
   -4.2340   -0.2481    1.3197 H   0  0  0  0  0  0  0  0  0  0  0  0
   -3.6334   -0.2886    3.7365 H   0  0  0  0  0  0  0  0  0  0  0  0
   -1.2918   -0.1773    4.4656 H   0  0  0  0  0  0  0  0  0  0  0  0
    0.5675   -0.0558    2.7987 H   0  0  0  0  0  0  0  0  0  0  0  0
   -3.5774    0.8814   -2.0152 H   0  0  0  0  0  0  0  0  0  0  0  0
   -4.2309   -0.4447   -1.0461 H   0  0  0  0  0  0  0  0  0  0  0  0
   -2.4236   -0.6785   -3.5510 H   0  0  0  0  0  0  0  0  0  0  0  0
   -4.1152   -1.2382   -3.3561 H   0  0  0  0  0  0  0  0  0  0  0  0
   -1.7752   -2.3612   -1.8429 H   0  0  0  0  0  0  0  0  0  0  0  0
   -2.3969   -5.3073   -2.2679 H   0  0  0  0  0  0  0  0  0  0  0  0
   -3.7803   -5.3370   -1.1798 H   0  0  0  0  0  0  0  0  0  0  0  0
   -0.2167   -4.7853   -1.3881 H   0  0  0  0  0  0  0  0  0  0  0  0
    1.2335   -4.0030    0.4902 H   0  0  0  0  0  0  0  0  0  0  0  0
   -2.2905   -3.0050    2.7727 H   0  0  0  0  0  0  0  0  0  0  0  0
   -3.7274   -3.7978    0.9062 H   0  0  0  0  0  0  0  0  0  0  0  0
   -0.0858   -2.5283    3.3935 H   0  0  0  0  0  0  0  0  0  0  0  0
  1 10  1  0  0  0  0
  2  1  1  0  0  0  0
  3  4  2  0  0  0  0
  3  1  1  0  0  0  0
  4  5  1  0  0  0  0
  5 10  2  0  0  0  0
  5  6  1  0  0  0  0
  6  7  2  0  0  0  0
  7  8  1  0  0  0  0
  7 26  1  0  0  0  0
  8 27  1  0  0  0  0
  9 28  1  0  0  0  0
  9  8  2  0  0  0  0
 10  9  1  0  0  0  0
 11 30  1  0  0  0  0
 11  4  1  0  0  0  0
 12 13  1  0  0  0  0
 12 11  1  0  0  0  0
 13 14  1  0  0  0  0
 13 33  1  0  0  0  0
 14 16  1  0  0  0  0
 15 14  2  0  0  0  0
 16 35  1  0  0  0  0
 16 17  1  0  0  0  0
 17 22  1  0  0  0  0
 18 17  2  0  0  0  0
 18 19  1  0  0  0  0
 19 20  2  0  0  0  0
 20 21  1  0  0  0  0
 20 23  1  0  0  0  0
 21 38  1  0  0  0  0
 22 39  1  0  0  0  0
 22 21  2  0  0  0  0
 23 40  1  0  0  0  0
 24  3  1  0  0  0  0
 25  6  1  0  0  0  0
 29 11  1  0  0  0  0
 31 12  1  0  0  0  0
 32 12  1  0  0  0  0
 34 16  1  0  0  0  0
 36 18  1  0  0  0  0
 37 19  1  0  0  0  0
M  END
$$$$
