
     RDKit          3D

 40 42  0  0  0  0  0  0  0  0999 V2000
   -0.0299    0.0241    0.0891 N   0  0  0  0  0  0  0  0  0  0  0  0
    0.9820    0.0881    0.0838 H   0  0  0  0  0  0  0  0  0  0  0  0
   -0.8204    0.0032   -1.0432 C   0  0  0  0  0  0  0  0  0  0  0  0
   -2.1180   -0.3262   -0.7170 C   0  0  0  0  0  0  0  0  0  0  0  0
   -2.1257   -0.5533    0.7117 C   0  0  0  0  0  0  0  0  0  0  0  0
   -3.1176   -0.9253    1.6389 C   0  0  0  0  0  0  0  0  0  0  0  0
   -2.7680   -1.0864    2.9763 C   0  0  0  0  0  0  0  0  0  0  0  0
   -1.4411   -0.8809    3.4124 C   0  0  0  0  0  0  0  0  0  0  0  0
   -0.4392   -0.5025    2.5224 C   0  0  0  0  0  0  0  0  0  0  0  0
   -0.7931   -0.3382    1.1770 C   0  0  0  0  0  0  0  0  0  0  0  0
   -3.2530   -0.5350   -1.6773 C   0  0  0  0  0  0  0  0  0  0  0  0
   -3.6604   -2.0185   -1.7948 C   0  0  0  0  0  0  0  0  0  0  0  0
   -2.5095   -2.8645   -2.0213 N   0  0  0  0  0  0  0  0  0  0  0  0
   -2.3168   -3.6149   -3.1395 C   0  0  0  0  0  0  0  0  0  0  0  0
   -3.1469   -3.7534   -4.0214 O   0  0  0  0  0  0  0  0  0  0  0  0
   -0.9542   -4.3384   -3.1973 C   0  0  0  0  0  0  0  0  0  0  0  0
    0.1765   -3.5628   -2.5729 C   0  0  0  0  0  0  0  0  0  0  0  0
    0.4828   -3.6924   -1.2074 C   0  0  0  0  0  0  0  0  0  0  0  0
    1.4015   -2.8512   -0.5829 C   0  0  0  0  0  0  0  0  0  0  0  0
    2.0425   -1.8567   -1.3268 C   0  0  0  0  0  0  0  0  0  0  0  0
    1.7983   -1.7474   -2.6993 C   0  0  0  0  0  0  0  0  0  0  0  0
    0.8694   -2.5921   -3.3091 C   0  0  0  0  0  0  0  0  0  0  0  0
    2.8440   -0.9742   -0.6522 O   0  0  0  0  0  0  0  0  0  0  0  0
   -0.3940    0.2131   -2.0215 H   0  0  0  0  0  0  0  0  0  0  0  0
   -4.1485   -1.0852    1.3142 H   0  0  0  0  0  0  0  0  0  0  0  0
   -3.5300   -1.3765    3.7034 H   0  0  0  0  0  0  0  0  0  0  0  0
   -1.1965   -1.0183    4.4684 H   0  0  0  0  0  0  0  0  0  0  0  0
    0.5865   -0.3379    2.8605 H   0  0  0  0  0  0  0  0  0  0  0  0
   -2.9575   -0.1667   -2.6727 H   0  0  0  0  0  0  0  0  0  0  0  0
   -4.1403    0.0458   -1.3706 H   0  0  0  0  0  0  0  0  0  0  0  0
   -4.3508   -2.1729   -2.6354 H   0  0  0  0  0  0  0  0  0  0  0  0
   -4.1776   -2.3363   -0.8727 H   0  0  0  0  0  0  0  0  0  0  0  0
   -1.7189   -2.7174   -1.4028 H   0  0  0  0  0  0  0  0  0  0  0  0
   -0.7731   -4.5463   -4.2604 H   0  0  0  0  0  0  0  0  0  0  0  0
   -1.0841   -5.3115   -2.6948 H   0  0  0  0  0  0  0  0  0  0  0  0
   -0.0278   -4.4546   -0.6124 H   0  0  0  0  0  0  0  0  0  0  0  0
    1.6084   -2.9325    0.4853 H   0  0  0  0  0  0  0  0  0  0  0  0
    2.3107   -0.9788   -3.2865 H   0  0  0  0  0  0  0  0  0  0  0  0
    0.6601   -2.4756   -4.3755 H   0  0  0  0  0  0  0  0  0  0  0  0
    3.3314   -0.4312   -1.2865 H   0  0  0  0  0  0  0  0  0  0  0  0
  1  2  1  0
  1  3  1  0
  1 10  1  0
  3  4  2  0
  3 24  1  0
  4  5  1  0
  4 11  1  0
  5  6  1  0
  5 10  2  0
  6  7  2  0
  6 25  1  0
  7  8  1  0
  7 26  1  0
  8  9  2  0
  8 27  1  0
  9 10  1  0
  9 28  1  0
 11 12  1  0
 11 29  1  0
 11 30  1  0
 12 13  1  0
 12 31  1  0
 12 32  1  0
 13 14  1  0
 13 33  1  0
 14 15  2  0
 14 16  1  0
 16 17  1  0
 16 34  1  0
 16 35  1  0
 17 18  2  0
 17 22  1  0
 18 19  1  0
 18 36  1  0
 19 20  2  0
 19 37  1  0
 20 21  1  0
 20 23  1  0
 21 22  2  0
 21 38  1  0
 22 39  1  0
 23 40  1  0
M  END

