rmsd137.gzmat
 OpenBabel08211713413D

 40 42  0  0  0  0  0  0  0  0999 V2000
    0.0000    0.0000    0.0000 N   0  0  0  0  0  0  0  0  0  0  0  0
    0.9996    0.0000    0.0000 H   0  0  0  0  0  0  0  0  0  0  0  0
   -0.7948    0.0000   -1.1534 C   0  0  0  0  0  0  0  0  0  0  0  0
   -2.0962   -0.3476   -0.8301 C   0  0  0  0  0  0  0  0  0  0  0  0
   -2.1277   -0.6067    0.5858 C   0  0  0  0  0  0  0  0  0  0  0  0
   -3.1252   -0.9942    1.4854 C   0  0  0  0  0  0  0  0  0  0  0  0
   -2.7866   -1.1947    2.8112 C   0  0  0  0  0  0  0  0  0  0  0  0
   -1.4663   -1.0007    3.2706 C   0  0  0  0  0  0  0  0  0  0  0  0
   -0.4564   -0.6016    2.4165 C   0  0  0  0  0  0  0  0  0  0  0  0
   -0.7948   -0.4080    1.0706 C   0  0  0  0  0  0  0  0  0  0  0  0
   -3.2180   -0.4891   -1.7811 C   0  0  0  0  0  0  0  0  0  0  0  0
   -3.8066   -1.9228   -1.7678 C   0  0  0  0  0  0  0  0  0  0  0  0
   -2.7586   -2.9450   -1.6882 N   0  0  0  0  0  0  0  0  0  0  0  0
   -2.3491   -3.6118   -2.8256 C   0  0  0  0  0  0  0  0  0  0  0  0
   -2.9693   -3.5470   -3.8672 O   0  0  0  0  0  0  0  0  0  0  0  0
   -1.1297   -4.5110   -2.6668 C   0  0  0  0  0  0  0  0  0  0  0  0
   -0.0184   -3.8012   -1.9664 C   0  0  0  0  0  0  0  0  0  0  0  0
    0.7164   -2.8261   -2.6519 C   0  0  0  0  0  0  0  0  0  0  0  0
    1.7029   -2.0991   -1.9996 C   0  0  0  0  0  0  0  0  0  0  0  0
    1.9352   -2.3686   -0.6470 C   0  0  0  0  0  0  0  0  0  0  0  0
    1.2501   -3.3636    0.0484 C   0  0  0  0  0  0  0  0  0  0  0  0
    0.2653   -4.0793   -0.6282 C   0  0  0  0  0  0  0  0  0  0  0  0
    2.8392   -1.5466   -0.0425 O   0  0  0  0  0  0  0  0  0  0  0  0
   -0.3760    0.2593   -2.1084 H   0  0  0  0  0  0  0  0  0  0  0  0
   -4.1470   -1.1296    1.1395 H   0  0  0  0  0  0  0  0  0  0  0  0
   -3.5473   -1.5039    3.5242 H   0  0  0  0  0  0  0  0  0  0  0  0
   -1.2501   -1.1672    4.3251 H   0  0  0  0  0  0  0  0  0  0  0  0
    0.5554   -0.4359    2.7670 H   0  0  0  0  0  0  0  0  0  0  0  0
   -2.8890   -0.2401   -2.8126 H   0  0  0  0  0  0  0  0  0  0  0  0
   -4.0241    0.2371   -1.5432 H   0  0  0  0  0  0  0  0  0  0  0  0
   -4.4264   -2.0867   -2.6807 H   0  0  0  0  0  0  0  0  0  0  0  0
   -4.4753   -2.0539   -0.8873 H   0  0  0  0  0  0  0  0  0  0  0  0
   -2.1293   -2.8491   -0.8983 H   0  0  0  0  0  0  0  0  0  0  0  0
   -0.8121   -4.8529   -3.6788 H   0  0  0  0  0  0  0  0  0  0  0  0
   -1.4350   -5.4395   -2.1393 H   0  0  0  0  0  0  0  0  0  0  0  0
    0.5033   -2.6303   -3.7040 H   0  0  0  0  0  0  0  0  0  0  0  0
    2.2865   -1.3383   -2.5119 H   0  0  0  0  0  0  0  0  0  0  0  0
    1.4619   -3.5683    1.0926 H   0  0  0  0  0  0  0  0  0  0  0  0
   -0.2906   -4.8545   -0.1002 H   0  0  0  0  0  0  0  0  0  0  0  0
    3.1015   -1.8725    0.8515 H   0  0  0  0  0  0  0  0  0  0  0  0
  1 10  1  0  0  0  0
  2  1  1  0  0  0  0
  3  4  2  0  0  0  0
  3  1  1  0  0  0  0
  4  5  1  0  0  0  0
  5 10  2  0  0  0  0
  5  6  1  0  0  0  0
  6  7  2  0  0  0  0
  7  8  1  0  0  0  0
  7 26  1  0  0  0  0
  8 27  1  0  0  0  0
  9 28  1  0  0  0  0
  9  8  2  0  0  0  0
 10  9  1  0  0  0  0
 11 12  1  0  0  0  0
 11 30  1  0  0  0  0
 11  4  1  0  0  0  0
 12 13  1  0  0  0  0
 12 32  1  0  0  0  0
 13 33  1  0  0  0  0
 14 16  1  0  0  0  0
 14 13  1  0  0  0  0
 15 14  2  0  0  0  0
 16 35  1  0  0  0  0
 16 17  1  0  0  0  0
 17 22  2  0  0  0  0
 18 19  2  0  0  0  0
 18 17  1  0  0  0  0
 19 20  1  0  0  0  0
 20 23  1  0  0  0  0
 20 21  2  0  0  0  0
 21 38  1  0  0  0  0
 22 39  1  0  0  0  0
 22 21  1  0  0  0  0
 23 40  1  0  0  0  0
 24  3  1  0  0  0  0
 25  6  1  0  0  0  0
 29 11  1  0  0  0  0
 31 12  1  0  0  0  0
 34 16  1  0  0  0  0
 36 18  1  0  0  0  0
 37 19  1  0  0  0  0
M  END
$$$$
