rmsd249.gzmat
 OpenBabel08211713413D

 40 42  0  0  0  0  0  0  0  0999 V2000
    0.0000    0.0000    0.0000 N   0  0  0  0  0  0  0  0  0  0  0  0
    0.9930    0.0000    0.0000 H   0  0  0  0  0  0  0  0  0  0  0  0
   -0.8187    0.0000   -1.1347 C   0  0  0  0  0  0  0  0  0  0  0  0
   -2.1493    0.0745   -0.7514 C   0  0  0  0  0  0  0  0  0  0  0  0
   -2.1742    0.1246    0.6860 C   0  0  0  0  0  0  0  0  0  0  0  0
   -3.1947    0.2114    1.6385 C   0  0  0  0  0  0  0  0  0  0  0  0
   -2.8535    0.2434    2.9778 C   0  0  0  0  0  0  0  0  0  0  0  0
   -1.5062    0.1812    3.3968 C   0  0  0  0  0  0  0  0  0  0  0  0
   -0.4699    0.0998    2.4869 C   0  0  0  0  0  0  0  0  0  0  0  0
   -0.8122    0.0758    1.1269 C   0  0  0  0  0  0  0  0  0  0  0  0
   -3.3406    0.1132   -1.6244 C   0  0  0  0  0  0  0  0  0  0  0  0
   -3.1700    1.0850   -2.8156 C   0  0  0  0  0  0  0  0  0  0  0  0
   -2.6833    2.3944   -2.3729 N   0  0  0  0  0  0  0  0  0  0  0  0
   -3.5749    3.4335   -2.1740 C   0  0  0  0  0  0  0  0  0  0  0  0
   -4.7137    3.3832   -2.5913 O   0  0  0  0  0  0  0  0  0  0  0  0
   -3.0200    4.6714   -1.4845 C   0  0  0  0  0  0  0  0  0  0  0  0
   -2.1122    4.3056   -0.3561 C   0  0  0  0  0  0  0  0  0  0  0  0
   -0.7246    4.3773   -0.5139 C   0  0  0  0  0  0  0  0  0  0  0  0
    0.1237    3.9534    0.5012 C   0  0  0  0  0  0  0  0  0  0  0  0
   -0.4486    3.4541    1.6750 C   0  0  0  0  0  0  0  0  0  0  0  0
   -1.8306    3.4019    1.8691 C   0  0  0  0  0  0  0  0  0  0  0  0
   -2.6589    3.8377    0.8422 C   0  0  0  0  0  0  0  0  0  0  0  0
    0.4312    3.0298    2.6194 O   0  0  0  0  0  0  0  0  0  0  0  0
   -0.3962   -0.0594   -2.1197 H   0  0  0  0  0  0  0  0  0  0  0  0
   -4.2338    0.2526    1.3185 H   0  0  0  0  0  0  0  0  0  0  0  0
   -3.6329    0.3078    3.7343 H   0  0  0  0  0  0  0  0  0  0  0  0
   -1.2916    0.1853    4.4648 H   0  0  0  0  0  0  0  0  0  0  0  0
    0.5676    0.0470    2.7996 H   0  0  0  0  0  0  0  0  0  0  0  0
   -4.2370    0.4141   -1.0389 H   0  0  0  0  0  0  0  0  0  0  0  0
   -3.5699   -0.9034   -2.0095 H   0  0  0  0  0  0  0  0  0  0  0  0
   -4.1421    1.2039   -3.3509 H   0  0  0  0  0  0  0  0  0  0  0  0
   -2.4409    0.6751   -3.5490 H   0  0  0  0  0  0  0  0  0  0  0  0
   -1.8132    2.3680   -1.8526 H   0  0  0  0  0  0  0  0  0  0  0  0
   -3.8771    5.2868   -1.1267 H   0  0  0  0  0  0  0  0  0  0  0  0
   -2.5146    5.3081   -2.2407 H   0  0  0  0  0  0  0  0  0  0  0  0
   -0.3013    4.7621   -1.4415 H   0  0  0  0  0  0  0  0  0  0  0  0
    1.2041    3.9980    0.4008 H   0  0  0  0  0  0  0  0  0  0  0  0
   -2.2497    3.0082    2.7907 H   0  0  0  0  0  0  0  0  0  0  0  0
   -3.7418    3.7984    0.9672 H   0  0  0  0  0  0  0  0  0  0  0  0
   -0.0244    2.5401    3.3502 H   0  0  0  0  0  0  0  0  0  0  0  0
  1 10  1  0  0  0  0
  2  1  1  0  0  0  0
  3  4  2  0  0  0  0
  3  1  1  0  0  0  0
  4  5  1  0  0  0  0
  5 10  2  0  0  0  0
  5  6  1  0  0  0  0
  6  7  2  0  0  0  0
  7  8  1  0  0  0  0
  7 26  1  0  0  0  0
  8 27  1  0  0  0  0
  9 28  1  0  0  0  0
  9  8  2  0  0  0  0
 10  9  1  0  0  0  0
 11 29  1  0  0  0  0
 11  4  1  0  0  0  0
 12 13  1  0  0  0  0
 12 11  1  0  0  0  0
 13 14  1  0  0  0  0
 13 33  1  0  0  0  0
 14 16  1  0  0  0  0
 15 14  2  0  0  0  0
 16 34  1  0  0  0  0
 16 17  1  0  0  0  0
 17 22  1  0  0  0  0
 18 17  2  0  0  0  0
 18 19  1  0  0  0  0
 19 20  2  0  0  0  0
 20 21  1  0  0  0  0
 20 23  1  0  0  0  0
 21 38  1  0  0  0  0
 22 39  1  0  0  0  0
 22 21  2  0  0  0  0
 23 40  1  0  0  0  0
 24  3  1  0  0  0  0
 25  6  1  0  0  0  0
 30 11  1  0  0  0  0
 31 12  1  0  0  0  0
 32 12  1  0  0  0  0
 35 16  1  0  0  0  0
 36 18  1  0  0  0  0
 37 19  1  0  0  0  0
M  END
$$$$
