40

N          0.03370        0.13350        0.05890
H          1.03990        0.22160        0.08030
C         -0.73700        0.05410       -1.08480
C         -2.07290       -0.01650       -0.75250
C         -2.13170        0.02350        0.69240
C         -3.18120        0.00970        1.63270
C         -2.87670        0.11060        2.98700
C         -1.53980        0.21110        3.42890
C         -0.47930        0.21640        2.52760
C         -0.78780        0.12660        1.16430
C         -3.21850       -0.14620       -1.71520
C         -3.55360       -1.59350       -2.10310
N         -4.07790       -2.37610       -1.00250
C         -5.21730       -3.11880       -1.12050
O         -5.87840       -3.17030       -2.14500
C         -5.60890       -3.91140        0.13030
C         -5.66800       -3.08260        1.39060
C         -4.87470       -3.37710        2.50800
C         -4.93100       -2.60340        3.66610
C         -5.79000       -1.50180        3.72370
C         -6.59230       -1.19130        2.61740
C         -6.53010       -1.97860        1.46850
O         -5.78180       -0.74800        4.85740
H         -0.27250        0.06280       -2.06950
H         -4.21970       -0.08460        1.30880
H         -3.67890        0.10670        3.72540
H         -1.33480        0.28450        4.49960
H          0.55520        0.29460        2.87080
H         -2.97700        0.39700       -2.64370
H         -4.12060        0.32990       -1.29720
H         -2.64560       -2.07100       -2.51600
H         -4.32360       -1.61720       -2.88670
H         -3.59510       -2.35020       -0.11010
H         -4.88910       -4.73680        0.25680
H         -6.58510       -4.36100       -0.10060
H         -4.19390       -4.23190        2.47240
H         -4.30210       -2.82680        4.52920
H         -7.26370       -0.32790        2.65680
H         -7.15880       -1.72600        0.61040
H         -6.40480       -0.01570        4.76160
