40
rmsd249.gzmat
N          0.00000        0.00000        0.00000
H          0.99300        0.00000        0.00000
C         -0.81870        0.00000       -1.13470
C         -2.14930        0.07450       -0.75140
C         -2.17420        0.12460        0.68600
C         -3.19470        0.21140        1.63850
C         -2.85350        0.24340        2.97780
C         -1.50620        0.18120        3.39680
C         -0.46990        0.09980        2.48690
C         -0.81220        0.07580        1.12690
C         -3.34060        0.11320       -1.62440
C         -3.17000        1.08500       -2.81560
N         -2.68330        2.39440       -2.37290
C         -3.57490        3.43350       -2.17400
O         -4.71370        3.38320       -2.59130
C         -3.02000        4.67140       -1.48450
C         -2.11220        4.30560       -0.35610
C         -0.72460        4.37730       -0.51390
C          0.12370        3.95340        0.50120
C         -0.44860        3.45410        1.67500
C         -1.83060        3.40190        1.86910
C         -2.65890        3.83770        0.84220
O          0.43120        3.02980        2.61940
H         -0.39620       -0.05940       -2.11970
H         -4.23380        0.25260        1.31850
H         -3.63290        0.30780        3.73430
H         -1.29160        0.18530        4.46480
H          0.56760        0.04700        2.79960
H         -4.23700        0.41410       -1.03890
H         -3.56990       -0.90340       -2.00950
H         -4.14210        1.20390       -3.35090
H         -2.44090        0.67510       -3.54900
H         -1.81320        2.36800       -1.85260
H         -3.87710        5.28680       -1.12670
H         -2.51460        5.30810       -2.24070
H         -0.30130        4.76210       -1.44150
H          1.20410        3.99800        0.40080
H         -2.24970        3.00820        2.79070
H         -3.74180        3.79840        0.96720
H         -0.02440        2.54010        3.35020
