40
rmsd246.gzmat
N          0.00000        0.00000        0.00000
H          0.99160        0.00000        0.00000
C         -0.81980        0.00000       -1.13340
C         -2.15040       -0.02030       -0.74510
C         -2.17670       -0.02870        0.69310
C         -3.19740       -0.03180        1.64990
C         -2.85280       -0.03420        2.98810
C         -1.50310       -0.04020        3.40270
C         -0.46720       -0.03210        2.48940
C         -0.81380       -0.02070        1.13060
C         -3.32910       -0.06540       -1.63300
C         -3.56500       -1.50180       -2.15370
N         -3.88470       -2.41140       -1.04860
C         -5.10040       -3.05620       -1.01090
O         -5.87740       -3.00380       -1.94410
C         -5.38140       -3.87920        0.23490
C         -5.55890       -3.00060        1.43000
C         -4.86470       -3.27450        2.61350
C         -5.03840       -2.47150        3.73300
C         -5.91550       -1.38540        3.64140
C         -6.61970       -1.09000        2.47330
C         -6.43530       -1.91460        1.36760
O         -6.02200       -0.63220        4.76850
H         -0.39870        0.01590       -2.12030
H         -4.24000       -0.03500        1.33630
H         -3.63150       -0.03650        3.75170
H         -1.28570       -0.05040        4.47050
H          0.56990       -0.03200        2.80240
H         -3.20410        0.62080       -2.49590
H         -4.23630        0.29450       -1.10210
H         -2.65220       -1.87840       -2.66800
H         -4.39050       -1.50840       -2.90500
H         -3.29150       -2.33960       -0.23390
H         -4.58200       -4.63390        0.38080
H         -6.31090       -4.47250        0.05960
H         -4.18120       -4.12170        2.66230
H         -4.51000       -2.66580        4.66260
H         -7.29590       -0.24360        2.42590
H         -6.97980       -1.71240        0.44200
H         -6.66290        0.11120        4.66200
