49
rmsd170.gzmat
N          0.00000        0.00000        0.00000
C          1.47700        0.00000        0.00000
C          2.11740        0.00000        1.39800
C          1.55320       -1.13770        2.26960
C          0.01530       -1.19280        2.23790
C         -0.51550       -1.13120        0.79620
O          2.06370       -2.37060        1.78710
C          2.05270       -1.02640        3.69320
C          1.75190        0.11190        4.44530
C          2.20680        0.22870        5.75680
C          2.95900       -0.80770        6.29600
C          3.26570       -1.95130        5.57060
C          2.80600       -2.05650        4.25800
Br         3.58900       -0.65080        8.08180
C         -0.55330        1.30870        0.42830
C         -2.04030        1.41730        0.04120
C         -2.23780        1.20110       -1.46120
C         -3.69200        1.02800       -1.79870
O         -4.55750        1.19450       -0.97080
C         -4.05360        0.62720       -3.18450
C         -5.39100        0.30010       -3.43500
C         -5.79780       -0.08720       -4.70810
C         -4.83270       -0.13260       -5.71350
C         -3.49300        0.19000       -5.49640
C         -3.11150        0.57100       -4.21330
F         -5.20380       -0.49850       -6.93020
H          1.83640        0.87590       -0.58280
H          1.80510       -0.89640       -0.57390
H          3.21500       -0.12270        1.31160
H          1.96130        0.97570        1.89020
H         -0.32400       -2.12750        2.72650
H         -0.41070       -0.36980        2.83900
H         -0.25690       -2.06550        0.24840
H         -1.62770       -1.08780        0.80230
H          1.77290       -2.52290        0.86700
H          1.15870        0.91660        4.01390
H          1.96830        1.12070        6.33510
H          3.85360       -2.76090        6.00310
H          3.03950       -2.95020        3.67180
H          0.01790        2.11220       -0.08670
H         -0.43990        1.48700        1.51840
H         -2.43240        2.40840        0.34090
H         -2.64760        0.68600        0.61170
H         -1.65780        0.30280       -1.77950
H         -1.80860        2.04820       -2.03080
H         -6.11910        0.35240       -2.61710
H         -6.83660       -0.34420       -4.90870
H         -2.76560        0.14580       -6.30460
H         -2.06680        0.82420       -4.02320
