49
rmsd157.gzmat
N          0.00000        0.00000        0.00000
C          1.47570        0.00000        0.00000
C          2.10440        0.00000        1.40230
C          1.55150       -1.15500        2.25810
C          0.01390       -1.23400        2.21840
C         -0.52140       -1.14040        0.77940
O          2.08190       -2.37570        1.76720
C          2.04040       -1.04910        3.68600
C          1.71800        0.07930        4.44440
C          2.15710        0.19020        5.76170
C          2.91580       -0.84180        6.30030
C          3.24670       -1.97390        5.56770
C          2.80230       -2.07370        4.24920
Br         3.51960       -0.69620        8.09550
C         -0.57150        1.29650        0.44160
C         -1.81600        1.60010       -0.41740
C         -1.41120        1.92440       -1.85960
C         -2.57200        1.71330       -2.79820
O         -3.10750        2.65900       -3.32880
C         -3.04940        0.33250       -3.06580
C         -2.35440       -0.79420       -2.62010
C         -2.83640       -2.07120       -2.89190
C         -4.02190       -2.18300       -3.61850
C         -4.73660       -1.07940       -4.08250
C         -4.23320        0.18630       -3.79820
F         -4.48990       -3.39350       -3.87940
H          1.83380        0.87710       -0.58270
H          1.80800       -0.89490       -0.57380
H          3.20530       -0.10070        1.32860
H          1.92420        0.96780        1.90210
H         -0.30930       -2.18880        2.67930
H         -0.42470       -0.43850        2.84630
H         -0.26930       -2.06790        0.21710
H         -1.63250       -1.08300        0.79210
H          1.80790       -2.51790        0.84040
H          1.11980        0.88030        4.01290
H          1.90200        1.07420        6.34570
H          3.84200       -2.77880        5.99920
H          3.05550       -2.95910        3.65830
H          0.17180        2.11160        0.31490
H         -0.84730        1.29800        1.51680
H         -2.37370        2.44980        0.02000
H         -2.50930        0.73660       -0.38830
H         -0.54840        1.29690       -2.17090
H         -1.05530        2.97290       -1.93130
H         -1.42480       -0.68180       -2.04740
H         -2.30040       -2.95290       -2.54780
H         -5.65780       -1.19920       -4.64920
H         -4.76210        1.07980       -4.14860
