rmsd155.gzmat
 OpenBabel08211713373D

 49 51  0  0  0  0  0  0  0  0999 V2000
    0.0000    0.0000    0.0000 N   0  0  0  0  0  0  0  0  0  0  0  0
    1.4763    0.0000    0.0000 C   0  0  0  0  0  0  0  0  0  0  0  0
    2.1178    0.0000    1.3973 C   0  0  0  0  0  0  0  0  0  0  0  0
    1.5619   -1.1489    2.2585 C   0  0  0  0  0  0  0  0  0  0  0  0
    0.0228   -1.1815    2.2487 C   0  0  0  0  0  0  0  0  0  0  0  0
   -0.5253   -1.1150    0.8133 C   0  0  0  0  0  0  0  0  0  0  0  0
    2.0474   -2.3793    1.7457 O   0  0  0  0  0  0  0  0  0  0  0  0
    2.0868   -1.0721    3.6746 C   0  0  0  0  0  0  0  0  0  0  0  0
    1.7901    0.0413    4.4645 C   0  0  0  0  0  0  0  0  0  0  0  0
    2.2562    0.1173    5.7752 C   0  0  0  0  0  0  0  0  0  0  0  0
    3.0161   -0.9332    6.2748 C   0  0  0  0  0  0  0  0  0  0  0  0
    3.3276   -2.0476    5.5073 C   0  0  0  0  0  0  0  0  0  0  0  0
    2.8567   -2.1120    4.1962 C   0  0  0  0  0  0  0  0  0  0  0  0
    3.6467   -0.8408    8.0643 Br  0  0  0  0  0  0  0  0  0  0  0  0
   -0.5682    1.3118    0.3968 C   0  0  0  0  0  0  0  0  0  0  0  0
   -1.9292    1.5051   -0.3044 C   0  0  0  0  0  0  0  0  0  0  0  0
   -1.7498    1.6260   -1.8210 C   0  0  0  0  0  0  0  0  0  0  0  0
   -3.0022    1.2420   -2.5652 C   0  0  0  0  0  0  0  0  0  0  0  0
   -3.5333    2.0157   -3.3265 O   0  0  0  0  0  0  0  0  0  0  0  0
   -3.5756   -0.1118   -2.3496 C   0  0  0  0  0  0  0  0  0  0  0  0
   -2.7790   -1.1922   -1.9650 C   0  0  0  0  0  0  0  0  0  0  0  0
   -3.3479   -2.4469   -1.7674 C   0  0  0  0  0  0  0  0  0  0  0  0
   -4.7223   -2.5805   -1.9655 C   0  0  0  0  0  0  0  0  0  0  0  0
   -5.5410   -1.5237   -2.3621 C   0  0  0  0  0  0  0  0  0  0  0  0
   -4.9473   -0.2806   -2.5596 C   0  0  0  0  0  0  0  0  0  0  0  0
   -5.2748   -3.7673   -1.7677 F   0  0  0  0  0  0  0  0  0  0  0  0
    1.8363    0.8748   -0.5847 H   0  0  0  0  0  0  0  0  0  0  0  0
    1.8045   -0.8970   -0.5737 H   0  0  0  0  0  0  0  0  0  0  0  0
    3.2168   -0.1111    1.3113 H   0  0  0  0  0  0  0  0  0  0  0  0
    1.9521    0.9699    1.8977 H   0  0  0  0  0  0  0  0  0  0  0  0
   -0.3222   -2.1104    2.7444 H   0  0  0  0  0  0  0  0  0  0  0  0
   -0.3815   -0.3517    2.8546 H   0  0  0  0  0  0  0  0  0  0  0  0
   -0.2889   -2.0580    0.2699 H   0  0  0  0  0  0  0  0  0  0  0  0
   -1.6361   -1.0482    0.8373 H   0  0  0  0  0  0  0  0  0  0  0  0
    1.7444   -2.5095    0.8262 H   0  0  0  0  0  0  0  0  0  0  0  0
    1.1909    0.8566    4.0632 H   0  0  0  0  0  0  0  0  0  0  0  0
    2.0194    0.9889    6.3846 H   0  0  0  0  0  0  0  0  0  0  0  0
    3.9270   -2.8662    5.9057 H   0  0  0  0  0  0  0  0  0  0  0  0
    3.0934   -2.9836    3.5785 H   0  0  0  0  0  0  0  0  0  0  0  0
    0.1210    2.1268    0.0874 H   0  0  0  0  0  0  0  0  0  0  0  0
   -0.6941    1.4101    1.4953 H   0  0  0  0  0  0  0  0  0  0  0  0
   -2.4247    2.4107    0.0939 H   0  0  0  0  0  0  0  0  0  0  0  0
   -2.6021    0.6616   -0.0533 H   0  0  0  0  0  0  0  0  0  0  0  0
   -0.9095    0.9779   -2.1597 H   0  0  0  0  0  0  0  0  0  0  0  0
   -1.4495    2.6587   -2.0930 H   0  0  0  0  0  0  0  0  0  0  0  0
   -1.7023   -1.0554   -1.8124 H   0  0  0  0  0  0  0  0  0  0  0  0
   -2.7363   -3.2962   -1.4707 H   0  0  0  0  0  0  0  0  0  0  0  0
   -6.6090   -1.6627   -2.5177 H   0  0  0  0  0  0  0  0  0  0  0  0
   -5.5513    0.5722   -2.8859 H   0  0  0  0  0  0  0  0  0  0  0  0
  1  2  1  0  0  0  0
  1 15  1  0  0  0  0
  1  6  1  0  0  0  0
  2  3  1  0  0  0  0
  3 30  1  0  0  0  0
  3  4  1  0  0  0  0
  4  8  1  0  0  0  0
  5  4  1  0  0  0  0
  5 31  1  0  0  0  0
  5 32  1  0  0  0  0
  6 34  1  0  0  0  0
  6  5  1  0  0  0  0
  7  4  1  0  0  0  0
  8 13  2  0  0  0  0
  8  9  1  0  0  0  0
  9 10  2  0  0  0  0
 10 11  1  0  0  0  0
 10 37  1  0  0  0  0
 11 14  1  0  0  0  0
 12 38  1  0  0  0  0
 12 11  2  0  0  0  0
 13 12  1  0  0  0  0
 15 41  1  0  0  0  0
 16 43  1  0  0  0  0
 16 42  1  0  0  0  0
 16 15  1  0  0  0  0
 17 16  1  0  0  0  0
 18 20  1  0  0  0  0
 18 17  1  0  0  0  0
 19 18  2  0  0  0  0
 20 21  2  0  0  0  0
 21 46  1  0  0  0  0
 21 22  1  0  0  0  0
 22 47  1  0  0  0  0
 23 26  1  0  0  0  0
 23 22  2  0  0  0  0
 24 23  1  0  0  0  0
 25 24  2  0  0  0  0
 25 20  1  0  0  0  0
 27  2  1  0  0  0  0
 28  2  1  0  0  0  0
 29  3  1  0  0  0  0
 33  6  1  0  0  0  0
 35  7  1  0  0  0  0
 36  9  1  0  0  0  0
 39 13  1  0  0  0  0
 40 15  1  0  0  0  0
 44 17  1  0  0  0  0
 45 17  1  0  0  0  0
 48 24  1  0  0  0  0
 49 25  1  0  0  0  0
M  END
$$$$
