
     RDKit          3D

 49 51  0  0  0  0  0  0  0  0999 V2000
   -0.1136    0.1193    0.1483 N   0  0  0  0  0  0  0  0  0  0  0  0
    1.3376    0.0178    0.0394 C   0  0  0  0  0  0  0  0  0  0  0  0
    2.0576   -0.0153    1.3944 C   0  0  0  0  0  0  0  0  0  0  0  0
    1.5182   -1.1552    2.2898 C   0  0  0  0  0  0  0  0  0  0  0  0
   -0.0235   -1.0551    2.3638 C   0  0  0  0  0  0  0  0  0  0  0  0
   -0.6538   -0.9651    0.9667 C   0  0  0  0  0  0  0  0  0  0  0  0
    1.8880   -2.4146    1.7333 O   0  0  0  0  0  0  0  0  0  0  0  0
    2.1323   -1.0911    3.6819 C   0  0  0  0  0  0  0  0  0  0  0  0
    1.9487    0.0384    4.4942 C   0  0  0  0  0  0  0  0  0  0  0  0
    2.5045    0.1117    5.7715 C   0  0  0  0  0  0  0  0  0  0  0  0
    3.2586   -0.9631    6.2486 C   0  0  0  0  0  0  0  0  0  0  0  0
    3.4562   -2.0975    5.4612 C   0  0  0  0  0  0  0  0  0  0  0  0
    2.8925   -2.1546    4.1839 C   0  0  0  0  0  0  0  0  0  0  0  0
    4.0237   -0.8751    7.9928 Br  0  0  0  0  0  0  0  0  0  0  0  0
   -0.6277    1.4441    0.4920 C   0  0  0  0  0  0  0  0  0  0  0  0
   -1.9866    1.7088   -0.1603 C   0  0  0  0  0  0  0  0  0  0  0  0
   -1.8861    1.8039   -1.6956 C   0  0  0  0  0  0  0  0  0  0  0  0
   -3.1880    1.4297   -2.3791 C   0  0  0  0  0  0  0  0  0  0  0  0
   -3.9336    2.2791   -2.8293 O   0  0  0  0  0  0  0  0  0  0  0  0
   -3.5520   -0.0253   -2.4478 C   0  0  0  0  0  0  0  0  0  0  0  0
   -2.6920   -1.0483   -2.0108 C   0  0  0  0  0  0  0  0  0  0  0  0
   -3.0797   -2.3856   -2.0970 C   0  0  0  0  0  0  0  0  0  0  0  0
   -4.3327   -2.6910   -2.6243 C   0  0  0  0  0  0  0  0  0  0  0  0
   -5.2069   -1.6981   -3.0686 C   0  0  0  0  0  0  0  0  0  0  0  0
   -4.8083   -0.3683   -2.9769 C   0  0  0  0  0  0  0  0  0  0  0  0
   -4.7084   -3.9724   -2.7071 F   0  0  0  0  0  0  0  0  0  0  0  0
    1.7108    0.8514   -0.5747 H   0  0  0  0  0  0  0  0  0  0  0  0
    1.5746   -0.9021   -0.5285 H   0  0  0  0  0  0  0  0  0  0  0  0
    3.1410   -0.1593    1.2600 H   0  0  0  0  0  0  0  0  0  0  0  0
    1.9172    0.9505    1.9043 H   0  0  0  0  0  0  0  0  0  0  0  0
   -0.4052   -1.9349    2.9046 H   0  0  0  0  0  0  0  0  0  0  0  0
   -0.3040   -0.1687    2.9527 H   0  0  0  0  0  0  0  0  0  0  0  0
   -0.4937   -1.9174    0.4266 H   0  0  0  0  0  0  0  0  0  0  0  0
   -1.7453   -0.8540    1.0468 H   0  0  0  0  0  0  0  0  0  0  0  0
    1.5353   -2.4727    0.8382 H   0  0  0  0  0  0  0  0  0  0  0  0
    1.3618    0.8869    4.1347 H   0  0  0  0  0  0  0  0  0  0  0  0
    2.3540    0.9959    6.3922 H   0  0  0  0  0  0  0  0  0  0  0  0
    4.0465   -2.9324    5.8418 H   0  0  0  0  0  0  0  0  0  0  0  0
    3.0411   -3.0356    3.5616 H   0  0  0  0  0  0  0  0  0  0  0  0
    0.0942    2.1943    0.1309 H   0  0  0  0  0  0  0  0  0  0  0  0
   -0.7098    1.5992    1.5872 H   0  0  0  0  0  0  0  0  0  0  0  0
   -2.4195    2.6377    0.2438 H   0  0  0  0  0  0  0  0  0  0  0  0
   -2.6830    0.9043    0.1283 H   0  0  0  0  0  0  0  0  0  0  0  0
   -1.0799    1.1362   -2.0353 H   0  0  0  0  0  0  0  0  0  0  0  0
   -1.6384    2.8303   -2.0012 H   0  0  0  0  0  0  0  0  0  0  0  0
   -1.7127   -0.8050   -1.5945 H   0  0  0  0  0  0  0  0  0  0  0  0
   -2.4282   -3.1951   -1.7634 H   0  0  0  0  0  0  0  0  0  0  0  0
   -6.1782   -1.9840   -3.4761 H   0  0  0  0  0  0  0  0  0  0  0  0
   -5.4593    0.4400   -3.3144 H   0  0  0  0  0  0  0  0  0  0  0  0
  1  2  1  0
  1  6  1  0
  1 15  1  0
  2  3  1  0
  2 27  1  0
  2 28  1  0
  3  4  1  0
  3 29  1  0
  3 30  1  0
  4  5  1  0
  4  7  1  0
  4  8  1  0
  5  6  1  0
  5 31  1  0
  5 32  1  0
  6 33  1  0
  6 34  1  0
  7 35  1  0
  8  9  2  0
  8 13  1  0
  9 10  1  0
  9 36  1  0
 10 11  2  0
 10 37  1  0
 11 12  1  0
 11 14  1  0
 12 13  2  0
 12 38  1  0
 13 39  1  0
 15 16  1  0
 15 40  1  0
 15 41  1  0
 16 17  1  0
 16 42  1  0
 16 43  1  0
 17 18  1  0
 17 44  1  0
 17 45  1  0
 18 19  2  0
 18 20  1  0
 20 21  2  0
 20 25  1  0
 21 22  1  0
 21 46  1  0
 22 23  2  0
 22 47  1  0
 23 24  1  0
 23 26  1  0
 24 25  2  0
 24 48  1  0
 25 49  1  0
M  END

