49
rmsd246.gzmat
N          0.00000        0.00000        0.00000
C          1.47660        0.00000        0.00000
C          2.10230        0.00000        1.40320
C          1.56220       -1.16910        2.24880
C          0.02650       -1.26620        2.20560
C         -0.51420       -1.15120        0.76980
O          2.10390       -2.38220        1.75100
C          2.07020       -1.05770        3.66960
C          1.59650       -0.03630        4.49670
C          2.06610        0.08630        5.80250
C          3.01480       -0.82110        6.25710
C          3.50430       -1.84150        5.45230
C          3.02340       -1.95690        4.14820
Br         3.66290       -0.65780        8.03550
C         -0.55650        1.29470        0.46610
C         -1.92600        1.53060       -0.20150
C         -1.76840        1.78580       -1.70450
C         -3.03640        1.44240       -2.44380
O         -3.65260        2.29350       -3.04140
C         -3.52370        0.03940       -2.41420
C         -2.66520       -1.03070       -2.15290
C         -3.15510       -2.33310       -2.12690
C         -4.51630       -2.52420       -2.36390
C         -5.39700       -1.47770       -2.63530
C         -4.88090       -0.18560       -2.66460
F         -4.99410       -3.75840       -2.32800
H          1.83490        0.87720       -0.58170
H          1.81010       -0.89460       -0.57260
H          3.20440       -0.08190        1.33080
H          1.90470        0.95990        1.91260
H         -0.28210       -2.23480        2.64820
H         -0.42810       -0.49070        2.84670
H         -0.26560       -2.07030        0.19250
H         -1.62570       -1.09800        0.79150
H          1.82410       -2.52610        0.82650
H          0.85700        0.67290        4.12830
H          1.68610        0.88270        6.44170
H          4.25140       -2.54660        5.81720
H          3.39680       -2.75650        3.50150
H          0.13350        2.11980        0.18550
H         -0.66390        1.34140        1.57030
H         -2.42740        2.39250        0.27880
H         -2.58610        0.65960       -0.01890
H         -0.92210        1.18940       -2.11110
H         -1.49770        2.84530       -1.89090
H         -1.60130       -0.85000       -1.95870
H         -2.49400       -3.17400       -1.92900
H         -6.45310       -1.66160       -2.82180
H         -5.53500        0.66410       -2.88620
