49

N         -0.11360        0.11930        0.14830
C          1.33760        0.01780        0.03940
C          2.05760       -0.01530        1.39440
C          1.51820       -1.15520        2.28980
C         -0.02350       -1.05510        2.36380
C         -0.65380       -0.96510        0.96670
O          1.88800       -2.41460        1.73330
C          2.13230       -1.09110        3.68190
C          1.94870        0.03840        4.49420
C          2.50450        0.11170        5.77150
C          3.25860       -0.96310        6.24860
C          3.45620       -2.09750        5.46120
C          2.89250       -2.15460        4.18390
Br         4.02370       -0.87510        7.99280
C         -0.62770        1.44410        0.49200
C         -1.98660        1.70880       -0.16030
C         -1.88610        1.80390       -1.69560
C         -3.18800        1.42970       -2.37910
O         -3.93360        2.27910       -2.82930
C         -3.55200       -0.02530       -2.44780
C         -2.69200       -1.04830       -2.01080
C         -3.07970       -2.38560       -2.09700
C         -4.33270       -2.69100       -2.62430
C         -5.20690       -1.69810       -3.06860
C         -4.80830       -0.36830       -2.97690
F         -4.70840       -3.97240       -2.70710
H          1.71080        0.85140       -0.57470
H          1.57460       -0.90210       -0.52850
H          3.14100       -0.15930        1.26000
H          1.91720        0.95050        1.90430
H         -0.40520       -1.93490        2.90460
H         -0.30400       -0.16870        2.95270
H         -0.49370       -1.91740        0.42660
H         -1.74530       -0.85400        1.04680
H          1.53530       -2.47270        0.83820
H          1.36180        0.88690        4.13470
H          2.35400        0.99590        6.39220
H          4.04650       -2.93240        5.84180
H          3.04110       -3.03560        3.56160
H          0.09420        2.19430        0.13090
H         -0.70980        1.59920        1.58720
H         -2.41950        2.63770        0.24380
H         -2.68300        0.90430        0.12830
H         -1.07990        1.13620       -2.03530
H         -1.63840        2.83030       -2.00120
H         -1.71270       -0.80500       -1.59450
H         -2.42820       -3.19510       -1.76340
H         -6.17820       -1.98400       -3.47610
H         -5.45930        0.44000       -3.31440
