rmsd159.gzmat
 OpenBabel08211713373D

 49 51  0  0  0  0  0  0  0  0999 V2000
    0.0000    0.0000    0.0000 N   0  0  0  0  0  0  0  0  0  0  0  0
    1.4775    0.0000    0.0000 C   0  0  0  0  0  0  0  0  0  0  0  0
    2.1052    0.0000    1.4032 C   0  0  0  0  0  0  0  0  0  0  0  0
    1.5583   -1.1603    2.2558 C   0  0  0  0  0  0  0  0  0  0  0  0
    0.0222   -1.2569    2.2077 C   0  0  0  0  0  0  0  0  0  0  0  0
   -0.5100   -1.1536    0.7688 C   0  0  0  0  0  0  0  0  0  0  0  0
    2.1054   -2.3752    1.7679 O   0  0  0  0  0  0  0  0  0  0  0  0
    2.0402   -1.0502    3.6857 C   0  0  0  0  0  0  0  0  0  0  0  0
    1.6558    0.0463    4.4618 C   0  0  0  0  0  0  0  0  0  0  0  0
    2.0846    0.1578    5.7824 C   0  0  0  0  0  0  0  0  0  0  0  0
    2.8977   -0.8403    6.3051 C   0  0  0  0  0  0  0  0  0  0  0  0
    3.2955   -1.9374    5.5527 C   0  0  0  0  0  0  0  0  0  0  0  0
    2.8594   -2.0390    4.2318 C   0  0  0  0  0  0  0  0  0  0  0  0
    3.4802   -0.7003    8.1078 Br  0  0  0  0  0  0  0  0  0  0  0  0
   -0.5524    1.2944    0.4714 C   0  0  0  0  0  0  0  0  0  0  0  0
   -1.9748    1.4879   -0.0906 C   0  0  0  0  0  0  0  0  0  0  0  0
   -1.9463    1.6505   -1.6136 C   0  0  0  0  0  0  0  0  0  0  0  0
   -3.2790    1.3000   -2.2225 C   0  0  0  0  0  0  0  0  0  0  0  0
   -3.9099    2.1174   -2.8501 O   0  0  0  0  0  0  0  0  0  0  0  0
   -3.8117   -0.0737   -2.0263 C   0  0  0  0  0  0  0  0  0  0  0  0
   -5.1985   -0.2477   -2.0616 C   0  0  0  0  0  0  0  0  0  0  0  0
   -5.7537   -1.5101   -1.8739 C   0  0  0  0  0  0  0  0  0  0  0  0
   -4.8841   -2.5802   -1.6676 C   0  0  0  0  0  0  0  0  0  0  0  0
   -3.4962   -2.4402   -1.6435 C   0  0  0  0  0  0  0  0  0  0  0  0
   -2.9659   -1.1661   -1.8251 C   0  0  0  0  0  0  0  0  0  0  0  0
   -5.3992   -3.7865   -1.4881 F   0  0  0  0  0  0  0  0  0  0  0  0
    1.8360    0.8770   -0.5820 H   0  0  0  0  0  0  0  0  0  0  0  0
    1.8099   -0.8942   -0.5743 H   0  0  0  0  0  0  0  0  0  0  0  0
    3.2067   -0.0939    1.3298 H   0  0  0  0  0  0  0  0  0  0  0  0
    1.9187    0.9657    1.9051 H   0  0  0  0  0  0  0  0  0  0  0  0
   -0.2906   -2.2203    2.6582 H   0  0  0  0  0  0  0  0  0  0  0  0
   -0.4322   -0.4736    2.8399 H   0  0  0  0  0  0  0  0  0  0  0  0
   -0.2472   -2.0713    0.1954 H   0  0  0  0  0  0  0  0  0  0  0  0
   -1.6223   -1.1119    0.7823 H   0  0  0  0  0  0  0  0  0  0  0  0
    1.8193   -2.5323    0.8476 H   0  0  0  0  0  0  0  0  0  0  0  0
    1.0161    0.8206    4.0414 H   0  0  0  0  0  0  0  0  0  0  0  0
    1.7797    1.0158    6.3809 H   0  0  0  0  0  0  0  0  0  0  0  0
    3.9347   -2.7151    5.9717 H   0  0  0  0  0  0  0  0  0  0  0  0
    3.1616   -2.8986    3.6260 H   0  0  0  0  0  0  0  0  0  0  0  0
    0.0979    2.1206    0.1093 H   0  0  0  0  0  0  0  0  0  0  0  0
   -0.5727    1.3740    1.5788 H   0  0  0  0  0  0  0  0  0  0  0  0
   -2.4378    2.3775    0.3776 H   0  0  0  0  0  0  0  0  0  0  0  0
   -2.6132    0.6308    0.2008 H   0  0  0  0  0  0  0  0  0  0  0  0
   -1.1515    1.0067   -2.0531 H   0  0  0  0  0  0  0  0  0  0  0  0
   -1.6647    2.6880   -1.8862 H   0  0  0  0  0  0  0  0  0  0  0  0
   -5.8454    0.6167   -2.2426 H   0  0  0  0  0  0  0  0  0  0  0  0
   -6.8322   -1.6536   -1.8940 H   0  0  0  0  0  0  0  0  0  0  0  0
   -2.8459   -3.2994   -1.4933 H   0  0  0  0  0  0  0  0  0  0  0  0
   -1.8798   -1.0253   -1.8077 H   0  0  0  0  0  0  0  0  0  0  0  0
  1  2  1  0  0  0  0
  1 15  1  0  0  0  0
  1  6  1  0  0  0  0
  2  3  1  0  0  0  0
  3 30  1  0  0  0  0
  3  4  1  0  0  0  0
  4  8  1  0  0  0  0
  5  4  1  0  0  0  0
  5 31  1  0  0  0  0
  5 32  1  0  0  0  0
  6 34  1  0  0  0  0
  6  5  1  0  0  0  0
  7  4  1  0  0  0  0
  8 13  2  0  0  0  0
  8  9  1  0  0  0  0
  9 10  2  0  0  0  0
 10 11  1  0  0  0  0
 10 37  1  0  0  0  0
 11 14  1  0  0  0  0
 12 38  1  0  0  0  0
 12 11  2  0  0  0  0
 13 12  1  0  0  0  0
 15 41  1  0  0  0  0
 16 43  1  0  0  0  0
 16 42  1  0  0  0  0
 16 15  1  0  0  0  0
 17 16  1  0  0  0  0
 18 20  1  0  0  0  0
 18 17  1  0  0  0  0
 19 18  2  0  0  0  0
 20 25  1  0  0  0  0
 21 20  2  0  0  0  0
 21 22  1  0  0  0  0
 22 23  2  0  0  0  0
 23 24  1  0  0  0  0
 23 26  1  0  0  0  0
 24 48  1  0  0  0  0
 25 49  1  0  0  0  0
 25 24  2  0  0  0  0
 27  2  1  0  0  0  0
 28  2  1  0  0  0  0
 29  3  1  0  0  0  0
 33  6  1  0  0  0  0
 35  7  1  0  0  0  0
 36  9  1  0  0  0  0
 39 13  1  0  0  0  0
 40 15  1  0  0  0  0
 44 17  1  0  0  0  0
 45 17  1  0  0  0  0
 46 21  1  0  0  0  0
 47 22  1  0  0  0  0
M  END
$$$$
