49
rmsd155.gzmat
N          0.00000        0.00000        0.00000
C          1.47630        0.00000        0.00000
C          2.11780        0.00000        1.39730
C          1.56190       -1.14890        2.25850
C          0.02280       -1.18150        2.24870
C         -0.52530       -1.11500        0.81330
O          2.04740       -2.37930        1.74570
C          2.08680       -1.07210        3.67460
C          1.79010        0.04130        4.46450
C          2.25620        0.11730        5.77520
C          3.01610       -0.93320        6.27480
C          3.32760       -2.04760        5.50730
C          2.85670       -2.11200        4.19620
Br         3.64670       -0.84080        8.06430
C         -0.56820        1.31180        0.39680
C         -1.92920        1.50510       -0.30440
C         -1.74980        1.62600       -1.82100
C         -3.00220        1.24200       -2.56520
O         -3.53330        2.01570       -3.32650
C         -3.57560       -0.11180       -2.34960
C         -2.77900       -1.19220       -1.96500
C         -3.34790       -2.44690       -1.76740
C         -4.72230       -2.58050       -1.96550
C         -5.54100       -1.52370       -2.36210
C         -4.94730       -0.28060       -2.55960
F         -5.27480       -3.76730       -1.76770
H          1.83630        0.87480       -0.58470
H          1.80450       -0.89700       -0.57370
H          3.21680       -0.11110        1.31130
H          1.95210        0.96990        1.89770
H         -0.32220       -2.11040        2.74440
H         -0.38150       -0.35170        2.85460
H         -0.28890       -2.05800        0.26990
H         -1.63610       -1.04820        0.83730
H          1.74440       -2.50950        0.82620
H          1.19090        0.85660        4.06320
H          2.01940        0.98890        6.38460
H          3.92700       -2.86620        5.90570
H          3.09340       -2.98360        3.57850
H          0.12100        2.12680        0.08740
H         -0.69410        1.41010        1.49530
H         -2.42470        2.41070        0.09390
H         -2.60210        0.66160       -0.05330
H         -0.90950        0.97790       -2.15970
H         -1.44950        2.65870       -2.09300
H         -1.70230       -1.05540       -1.81240
H         -2.73630       -3.29620       -1.47070
H         -6.60900       -1.66270       -2.51770
H         -5.55130        0.57220       -2.88590
