49

N         -0.22270       -0.03610        0.23300
C          1.22600       -0.01960        0.07320
C          1.99480        0.01150        1.40240
C          1.58090       -1.16470        2.31840
C          0.03940       -1.19680        2.44110
C         -0.63850       -1.16360        1.06280
O          2.03990       -2.39070        1.75260
C          2.23230       -1.04090        3.68920
C          1.98050        0.07410        4.50320
C          2.56890        0.20160        5.76160
C          3.42600       -0.80280        6.21720
C          3.69320       -1.92140        5.42780
C          3.09510       -2.03350        4.16990
Br         4.23700       -0.64020        7.93570
C         -0.81260        1.24810        0.60000
C         -2.29660        1.34120        0.24170
C         -2.55040        1.12340       -1.24440
C         -4.01990        0.98460       -1.59700
O         -4.87990        1.00480       -0.73540
C         -4.39380        0.81240       -3.03920
C         -5.75960        0.72310       -3.36060
C         -6.17600        0.55860       -4.67760
C         -5.20930        0.48030       -5.68070
C         -3.84740        0.56210       -5.39760
C         -3.44560        0.72910       -4.07250
F         -5.60040        0.32150       -6.94970
H          1.50920        0.84080       -0.55280
H          1.51960       -0.92050       -0.49890
H          3.08070       -0.04830        1.22940
H          1.79850        0.96520        1.91610
H         -0.24760       -2.10460        2.99430
H         -0.29830       -0.33620        3.03820
H         -0.40850       -2.09590        0.51310
H         -1.73180       -1.15300        1.17880
H          1.60920       -2.51480        0.89920
H          1.31220        0.86730        4.16000
H          2.36390        1.07360        6.38420
H          4.36380       -2.70120        5.79190
H          3.29650       -2.90280        3.54580
H         -0.26160        2.02680        0.04650
H         -0.68870        1.49420        1.67640
H         -2.67890        2.32650        0.55310
H         -2.88600        0.61160        0.81790
H         -2.01430        0.21670       -1.57500
H         -2.11820        1.94680       -1.84070
H         -6.48190        0.78630       -2.54510
H         -7.23180        0.48890       -4.94550
H         -3.12600        0.49380       -6.21350
H         -2.37940        0.79020       -3.85140
