49
rmsd58.gzmat
N          0.00000        0.00000        0.00000
C          1.47840        0.00000        0.00000
C          2.11510        0.00000        1.39970
C          1.55710       -1.14650        2.26490
C          0.01980       -1.20860        2.23250
C         -0.50840       -1.13910        0.79020
O          2.07090       -2.37500        1.77450
C          2.07230       -1.03490        3.68290
C          1.70520        0.06040        4.46860
C          2.18800        0.18620        5.76940
C          3.03660       -0.79670        6.26350
C          3.41000       -1.89780        5.50430
C          2.92080       -2.01320        4.20330
Br         3.71060       -0.62650        8.03240
C         -0.54110        1.31010        0.44040
C         -2.05430        1.40440        0.17490
C         -2.37750        1.19840       -1.30720
C         -3.84490        0.94400       -1.51230
O         -4.60940        0.87320       -0.57750
C         -4.35250        0.76840       -2.89900
C         -5.73390        0.61470       -3.06340
C         -6.28110        0.43930       -4.33060
C         -5.40920        0.42150       -5.41880
C         -4.02830        0.57150       -5.28860
C         -3.50630        0.74580       -4.01000
F         -5.91380        0.25280       -6.63060
H          1.83810        0.87530       -0.58310
H          1.80710       -0.89650       -0.57290
H          3.21400       -0.11180        1.31720
H          1.94790        0.97070        1.89830
H         -0.31460       -2.14930        2.71340
H         -0.41520       -0.39380        2.83780
H         -0.24030       -2.06770        0.23700
H         -1.62090       -1.10640        0.79440
H          1.77060       -2.52780        0.85750
H          1.04000        0.82490        4.07030
H          1.89810        1.04520        6.37390
H          4.07350       -2.66590        5.90150
H          3.20640       -2.87420        3.59170
H         -0.01910        2.10380       -0.13950
H         -0.34200        1.51690        1.51360
H         -2.42740        2.39010        0.51410
H         -2.60460        0.66350        0.79100
H         -1.78710        0.33330       -1.69320
H         -2.04430        2.07320       -1.89830
H         -6.38430        0.63160       -2.18090
H         -7.35480        0.31910       -4.46280
H         -3.37570        0.55090       -6.15910
H         -2.42770        0.86010       -3.88840
