rmsd163.gzmat
 OpenBabel08211713373D

 49 51  0  0  0  0  0  0  0  0999 V2000
    0.0000    0.0000    0.0000 N   0  0  0  0  0  0  0  0  0  0  0  0
    1.4768    0.0000    0.0000 C   0  0  0  0  0  0  0  0  0  0  0  0
    2.1147    0.0000    1.4004 C   0  0  0  0  0  0  0  0  0  0  0  0
    1.5352   -1.1184    2.2852 C   0  0  0  0  0  0  0  0  0  0  0  0
   -0.0046   -1.1554    2.2492 C   0  0  0  0  0  0  0  0  0  0  0  0
   -0.5208   -1.1240    0.8014 C   0  0  0  0  0  0  0  0  0  0  0  0
    2.0303   -2.3654    1.8227 O   0  0  0  0  0  0  0  0  0  0  0  0
    2.0212   -0.9976    3.7129 C   0  0  0  0  0  0  0  0  0  0  0  0
    1.7737    0.1741    4.4328 C   0  0  0  0  0  0  0  0  0  0  0  0
    2.2094    0.2953    5.7505 C   0  0  0  0  0  0  0  0  0  0  0  0
    2.8847   -0.7718    6.3296 C   0  0  0  0  0  0  0  0  0  0  0  0
    3.1381   -1.9481    5.6367 C   0  0  0  0  0  0  0  0  0  0  0  0
    2.7014   -2.0561    4.3166 C   0  0  0  0  0  0  0  0  0  0  0  0
    3.4780   -0.6164    8.1288 Br  0  0  0  0  0  0  0  0  0  0  0  0
   -0.5611    1.3061    0.4186 C   0  0  0  0  0  0  0  0  0  0  0  0
   -0.9264    2.0802   -0.8654 C   0  0  0  0  0  0  0  0  0  0  0  0
   -1.3571    3.5108   -0.5292 C   0  0  0  0  0  0  0  0  0  0  0  0
   -0.1407    4.3346   -0.1826 C   0  0  0  0  0  0  0  0  0  0  0  0
    0.3180    4.3187    0.9358 O   0  0  0  0  0  0  0  0  0  0  0  0
    0.4738    5.1804   -1.2361 C   0  0  0  0  0  0  0  0  0  0  0  0
    0.3370    4.8821   -2.5931 C   0  0  0  0  0  0  0  0  0  0  0  0
    0.9189    5.7032   -3.5541 C   0  0  0  0  0  0  0  0  0  0  0  0
    1.6326    6.8195   -3.1167 C   0  0  0  0  0  0  0  0  0  0  0  0
    1.7982    7.1360   -1.7687 C   0  0  0  0  0  0  0  0  0  0  0  0
    1.2140    6.2946   -0.8269 C   0  0  0  0  0  0  0  0  0  0  0  0
    2.1800    7.6122   -4.0239 F   0  0  0  0  0  0  0  0  0  0  0  0
    1.8304    0.8830   -0.5772 H   0  0  0  0  0  0  0  0  0  0  0  0
    1.8085   -0.8922   -0.5768 H   0  0  0  0  0  0  0  0  0  0  0  0
    3.2109   -0.1348    1.3176 H   0  0  0  0  0  0  0  0  0  0  0  0
    1.9709    0.9846    1.8823 H   0  0  0  0  0  0  0  0  0  0  0  0
   -0.3595   -2.0715    2.7599 H   0  0  0  0  0  0  0  0  0  0  0  0
   -0.4180   -0.3069    2.8229 H   0  0  0  0  0  0  0  0  0  0  0  0
   -0.2478   -2.0650    0.2722 H   0  0  0  0  0  0  0  0  0  0  0  0
   -1.6318   -1.0866    0.7887 H   0  0  0  0  0  0  0  0  0  0  0  0
    1.7717   -2.5086    0.8915 H   0  0  0  0  0  0  0  0  0  0  0  0
    1.2379    1.0028    3.9702 H   0  0  0  0  0  0  0  0  0  0  0  0
    2.0171    1.2150    6.3027 H   0  0  0  0  0  0  0  0  0  0  0  0
    3.6663   -2.7809    6.1001 H   0  0  0  0  0  0  0  0  0  0  0  0
    2.8947   -2.9751    3.7558 H   0  0  0  0  0  0  0  0  0  0  0  0
    0.1446    1.9016    1.0395 H   0  0  0  0  0  0  0  0  0  0  0  0
   -1.4696    1.1696    1.0408 H   0  0  0  0  0  0  0  0  0  0  0  0
   -1.7384    1.5464   -1.3959 H   0  0  0  0  0  0  0  0  0  0  0  0
   -0.0699    2.0723   -1.5660 H   0  0  0  0  0  0  0  0  0  0  0  0
   -2.0581    3.5074    0.3330 H   0  0  0  0  0  0  0  0  0  0  0  0
   -1.9273    3.9558   -1.3655 H   0  0  0  0  0  0  0  0  0  0  0  0
   -0.2210    3.9989   -2.9107 H   0  0  0  0  0  0  0  0  0  0  0  0
    0.8183    5.4784   -4.6144 H   0  0  0  0  0  0  0  0  0  0  0  0
    2.3689    8.0095   -1.4588 H   0  0  0  0  0  0  0  0  0  0  0  0
    1.3342    6.4991    0.2422 H   0  0  0  0  0  0  0  0  0  0  0  0
  1  2  1  0  0  0  0
  1 15  1  0  0  0  0
  1  6  1  0  0  0  0
  2  3  1  0  0  0  0
  3 30  1  0  0  0  0
  3  4  1  0  0  0  0
  4  8  1  0  0  0  0
  5  4  1  0  0  0  0
  5 31  1  0  0  0  0
  5 32  1  0  0  0  0
  6  5  1  0  0  0  0
  7  4  1  0  0  0  0
  8 13  2  0  0  0  0
  8  9  1  0  0  0  0
  9 10  2  0  0  0  0
 10 37  1  0  0  0  0
 10 11  1  0  0  0  0
 11 14  1  0  0  0  0
 12 38  1  0  0  0  0
 12 11  2  0  0  0  0
 13 12  1  0  0  0  0
 15 40  1  0  0  0  0
 15 41  1  0  0  0  0
 16 17  1  0  0  0  0
 16 15  1  0  0  0  0
 17 18  1  0  0  0  0
 17 44  1  0  0  0  0
 18 19  2  0  0  0  0
 20 25  1  0  0  0  0
 20 18  1  0  0  0  0
 21 20  2  0  0  0  0
 22 23  2  0  0  0  0
 22 21  1  0  0  0  0
 23 24  1  0  0  0  0
 24 48  1  0  0  0  0
 24 25  2  0  0  0  0
 25 49  1  0  0  0  0
 26 23  1  0  0  0  0
 27  2  1  0  0  0  0
 28  2  1  0  0  0  0
 29  3  1  0  0  0  0
 33  6  1  0  0  0  0
 34  6  1  0  0  0  0
 35  7  1  0  0  0  0
 36  9  1  0  0  0  0
 39 13  1  0  0  0  0
 42 16  1  0  0  0  0
 43 16  1  0  0  0  0
 45 17  1  0  0  0  0
 46 21  1  0  0  0  0
 47 22  1  0  0  0  0
M  END
$$$$
