60
rmsd198.gzmat
C          0.00000        0.00000        0.00000
N          1.38640        0.00000        0.00000
C          1.81110        0.00000        1.33560
N          0.74930       -0.00700        2.15240
C         -0.38330       -0.00870        1.34360
C         -1.76480       -0.02760        1.83410
O         -2.72020       -0.04690        1.07340
N         -1.95920       -0.02310        3.19530
C          2.17380        0.01070       -1.22740
H          1.54340       -0.52440       -2.00830
C          2.38030        1.46900       -1.71960
O          2.30590        1.48120       -3.12400
C          3.50440       -0.74120       -1.08280
C          4.08690       -1.08070       -2.47630
N          3.71550       -2.41830       -2.91130
C          4.44440       -3.57790       -2.59920
C          3.67750       -4.69410       -2.87060
C          2.39290       -4.23500       -3.31610
C          2.44520       -2.80340       -3.33270
C          1.34230       -2.02670       -3.70980
C          0.14240       -2.69290       -3.90130
C          0.07610       -4.11560       -3.91840
C          1.19640       -4.87640       -3.65310
N         -1.08520       -1.99800       -4.03170
C         -1.31060       -0.71650       -3.54130
O         -0.40790        0.01710       -3.19010
C         -2.76190       -0.31380       -3.41560
C         -3.38480       -1.01670       -2.20010
C         -4.82850       -0.63710       -2.06710
C         -5.23730        0.18940       -1.01890
C         -6.57870        0.54220       -0.89340
C         -7.51590        0.07010       -1.81090
C         -7.10950       -0.76090       -2.85350
C         -5.76890       -1.11630       -2.98190
H         -0.59930        0.01330       -0.89580
H          2.84210        0.00170        1.63730
H         -1.18560       -0.01580        3.82950
H         -2.88180       -0.04510        3.57470
H          3.39050        1.85880       -1.50780
H          1.62480        2.15760       -1.29880
H          1.40550        1.20060       -3.42160
H          3.35600       -1.67450       -0.50040
H          4.23500       -0.14340       -0.50830
H          5.19830       -1.00400       -2.45340
H          3.74190       -0.33520       -3.24050
H          5.45050       -3.51290       -2.23250
H          3.96310       -5.71810       -2.76850
H          1.43650       -0.95110       -3.84180
H         -0.86970       -4.60400       -4.13430
H          1.15450       -5.96440       -3.67770
H         -1.87870       -2.54880       -4.34570
H         -3.33520       -0.52450       -4.33680
H         -2.82200        0.79040       -3.27830
H         -2.82770       -0.74290       -1.26990
H         -3.28550       -2.11780       -2.27690
H         -4.50560        0.54850       -0.28820
H         -6.89510        1.18480       -0.07390
H         -8.56250        0.34690       -1.71190
H         -7.84070       -1.13460       -3.56630
H         -5.45930       -1.77060       -3.79160
