rmsd173.gzmat
 OpenBabel08211713373D

 60 63  0  0  1  0  0  0  0  0999 V2000
    0.0000    0.0000    0.0000 C   0  0  0  0  0  0  0  0  0  0  0  0
    1.3863    0.0000    0.0000 N   0  0  0  0  0  0  0  0  0  0  0  0
    1.8147    0.0000    1.3376 C   0  0  0  0  0  0  0  0  0  0  0  0
    0.7558   -0.0182    2.1525 N   0  0  0  0  0  0  0  0  0  0  0  0
   -0.3801   -0.0319    1.3445 C   0  0  0  0  0  0  0  0  0  0  0  0
   -1.7373   -0.1238    1.8875 C   0  0  0  0  0  0  0  0  0  0  0  0
   -2.7075   -0.4000    1.1925 O   0  0  0  0  0  0  0  0  0  0  0  0
   -1.9030    0.1084    3.2293 N   0  0  0  0  0  0  0  0  0  0  0  0
    2.2351   -0.0884   -1.1836 C   0  0  1  0  0  0  0  0  0  0  0  0
    1.5731   -0.1070   -2.0980 H   0  0  0  0  0  0  0  0  0  0  0  0
    3.1487    1.1620   -1.2486 C   0  0  0  0  0  0  0  0  0  0  0  0
    4.1088    1.1082   -0.2205 O   0  0  0  0  0  0  0  0  0  0  0  0
    3.0915   -1.3698   -1.1552 C   0  0  0  0  0  0  0  0  0  0  0  0
    2.2523   -2.6615   -1.2539 C   0  0  0  0  0  0  0  0  0  0  0  0
    1.5669   -2.7742   -2.5257 N   0  0  0  0  0  0  0  0  0  0  0  0
    2.2029   -2.9308   -3.7693 C   0  0  0  0  0  0  0  0  0  0  0  0
    1.2671   -2.8098   -4.7771 C   0  0  0  0  0  0  0  0  0  0  0  0
   -0.0015   -2.5405   -4.1608 C   0  0  0  0  0  0  0  0  0  0  0  0
    0.2154   -2.5156   -2.7468 C   0  0  0  0  0  0  0  0  0  0  0  0
   -0.8212   -2.2835   -1.8393 C   0  0  0  0  0  0  0  0  0  0  0  0
   -2.0855   -2.0036   -2.3683 C   0  0  0  0  0  0  0  0  0  0  0  0
   -2.3180   -2.0455   -3.7698 C   0  0  0  0  0  0  0  0  0  0  0  0
   -1.2935   -2.3200   -4.6512 C   0  0  0  0  0  0  0  0  0  0  0  0
   -3.0824   -1.6435   -1.4480 N   0  0  0  0  0  0  0  0  0  0  0  0
   -4.4549   -1.5770   -1.7076 C   0  0  0  0  0  0  0  0  0  0  0  0
   -4.9242   -1.7949   -2.7999 O   0  0  0  0  0  0  0  0  0  0  0  0
   -5.3032   -1.1908   -0.5123 C   0  0  0  0  0  0  0  0  0  0  0  0
   -5.2313   -2.2367    0.6086 C   0  0  0  0  0  0  0  0  0  0  0  0
   -5.5623   -3.6057    0.0971 C   0  0  0  0  0  0  0  0  0  0  0  0
   -6.8950   -3.9963   -0.0460 C   0  0  0  0  0  0  0  0  0  0  0  0
   -7.2015   -5.2607   -0.5434 C   0  0  0  0  0  0  0  0  0  0  0  0
   -6.1791   -6.1392   -0.8983 C   0  0  0  0  0  0  0  0  0  0  0  0
   -4.8482   -5.7518   -0.7521 C   0  0  0  0  0  0  0  0  0  0  0  0
   -4.5390   -4.4892   -0.2527 C   0  0  0  0  0  0  0  0  0  0  0  0
   -0.6003    0.0322   -0.8941 H   0  0  0  0  0  0  0  0  0  0  0  0
    2.8530    0.0447    1.6269 H   0  0  0  0  0  0  0  0  0  0  0  0
   -1.1155    0.2648    3.8301 H   0  0  0  0  0  0  0  0  0  0  0  0
   -2.8045    0.0212    3.6506 H   0  0  0  0  0  0  0  0  0  0  0  0
    2.5830    2.0892   -1.0203 H   0  0  0  0  0  0  0  0  0  0  0  0
    3.6271    1.2595   -2.2372 H   0  0  0  0  0  0  0  0  0  0  0  0
    4.8962    0.5966   -0.4963 H   0  0  0  0  0  0  0  0  0  0  0  0
    3.6934   -1.4080   -0.2253 H   0  0  0  0  0  0  0  0  0  0  0  0
    3.8153   -1.3375   -1.9941 H   0  0  0  0  0  0  0  0  0  0  0  0
    1.5059   -2.7016   -0.4233 H   0  0  0  0  0  0  0  0  0  0  0  0
    2.9185   -3.5480   -1.1171 H   0  0  0  0  0  0  0  0  0  0  0  0
    3.2519   -3.1378   -3.8292 H   0  0  0  0  0  0  0  0  0  0  0  0
    1.4311   -2.9032   -5.8282 H   0  0  0  0  0  0  0  0  0  0  0  0
   -0.6561   -2.3487   -0.7715 H   0  0  0  0  0  0  0  0  0  0  0  0
   -3.3260   -1.8635   -4.1517 H   0  0  0  0  0  0  0  0  0  0  0  0
   -1.4770   -2.3624   -5.7238 H   0  0  0  0  0  0  0  0  0  0  0  0
   -2.7699   -1.3948   -0.4997 H   0  0  0  0  0  0  0  0  0  0  0  0
   -6.3525   -1.0675   -0.8542 H   0  0  0  0  0  0  0  0  0  0  0  0
   -4.9801   -0.2013   -0.1206 H   0  0  0  0  0  0  0  0  0  0  0  0
   -5.9246   -1.9466    1.4248 H   0  0  0  0  0  0  0  0  0  0  0  0
   -4.2240   -2.2190    1.0811 H   0  0  0  0  0  0  0  0  0  0  0  0
   -7.6944   -3.3097    0.2208 H   0  0  0  0  0  0  0  0  0  0  0  0
   -8.2406   -5.5592   -0.6616 H   0  0  0  0  0  0  0  0  0  0  0  0
   -6.4196   -7.1234   -1.2918 H   0  0  0  0  0  0  0  0  0  0  0  0
   -4.0484   -6.4334   -1.0357 H   0  0  0  0  0  0  0  0  0  0  0  0
   -3.4979   -4.1866   -0.1517 H   0  0  0  0  0  0  0  0  0  0  0  0
  1  2  1  0  0  0  0
  1  5  1  0  0  0  0
  2  3  1  0  0  0  0
  3 36  1  0  0  0  0
  3  4  2  0  0  0  0
  5  6  1  0  0  0  0
  5  4  2  0  0  0  0
  6  8  1  0  0  0  0
  7  6  2  0  0  0  0
  8 38  1  0  0  0  0
  8 37  1  0  0  0  0
  9 10  1  6  0  0  0
  9 13  1  0  0  0  0
  9  2  1  0  0  0  0
 11  9  1  0  0  0  0
 11 39  1  0  0  0  0
 11 12  1  0  0  0  0
 13 42  1  0  0  0  0
 14 13  1  0  0  0  0
 14 45  1  0  0  0  0
 14 44  1  0  0  0  0
 15 14  1  0  0  0  0
 16 15  1  0  0  0  0
 17 18  1  0  0  0  0
 17 16  2  0  0  0  0
 18 19  1  0  0  0  0
 19 15  1  0  0  0  0
 19 20  2  0  0  0  0
 20 48  1  0  0  0  0
 21 20  1  0  0  0  0
 21 24  1  0  0  0  0
 22 21  2  0  0  0  0
 23 18  2  0  0  0  0
 23 22  1  0  0  0  0
 24 51  1  0  0  0  0
 25 24  1  0  0  0  0
 25 27  1  0  0  0  0
 26 25  2  0  0  0  0
 27 53  1  0  0  0  0
 27 28  1  0  0  0  0
 28 55  1  0  0  0  0
 28 54  1  0  0  0  0
 29 28  1  0  0  0  0
 30 29  1  0  0  0  0
 30 56  1  0  0  0  0
 31 30  2  0  0  0  0
 32 33  2  0  0  0  0
 32 31  1  0  0  0  0
 33 34  1  0  0  0  0
 34 60  1  0  0  0  0
 34 29  2  0  0  0  0
 35  1  1  0  0  0  0
 40 11  1  0  0  0  0
 41 12  1  0  0  0  0
 43 13  1  0  0  0  0
 46 16  1  0  0  0  0
 47 17  1  0  0  0  0
 49 22  1  0  0  0  0
 50 23  1  0  0  0  0
 52 27  1  0  0  0  0
 57 31  1  0  0  0  0
 58 32  1  0  0  0  0
 59 33  1  0  0  0  0
M  RAD  1   1   2
M  END
$$$$
