
     RDKit          3D

 60 63  0  0  0  0  0  0  0  0999 V2000
    0.0373   -0.0698    0.4536 C   0  0  0  0  0  0  0  0  0  0  0  0
    1.2611    0.1713   -0.1241 N   0  0  0  0  0  0  0  0  0  0  0  0
    2.0589    0.7321    0.8473 C   0  0  0  0  0  0  0  0  0  0  0  0
    1.4096    0.8679    1.9831 N   0  0  0  0  0  0  0  0  0  0  0  0
    0.1456    0.3708    1.7566 C   0  0  0  0  0  0  0  0  0  0  0  0
   -0.9178    0.3405    2.7927 C   0  0  0  0  0  0  0  0  0  0  0  0
   -2.0345   -0.1099    2.5783 O   0  0  0  0  0  0  0  0  0  0  0  0
   -0.5164    0.8579    3.9855 N   0  0  0  0  0  0  0  0  0  0  0  0
    1.6477   -0.2268   -1.4795 C   0  0  1  0  0  0  0  0  0  0  0  0
    0.7046   -0.2983   -2.0441 H   0  0  0  0  0  0  0  0  0  0  0  0
    2.4904    0.8709   -2.1594 C   0  0  0  0  0  0  0  0  0  0  0  0
    3.7650    1.0048   -1.5891 O   0  0  0  0  0  0  0  0  0  0  0  0
    2.3546   -1.6002   -1.4768 C   0  0  0  0  0  0  0  0  0  0  0  0
    1.7848   -2.6176   -2.4756 C   0  0  0  0  0  0  0  0  0  0  0  0
    1.5641   -2.1030   -3.8174 N   0  0  0  0  0  0  0  0  0  0  0  0
    0.3352   -2.0177   -4.4541 C   0  0  0  0  0  0  0  0  0  0  0  0
    0.4776   -1.4346   -5.6905 C   0  0  0  0  0  0  0  0  0  0  0  0
    1.8720   -1.1238   -5.8424 C   0  0  0  0  0  0  0  0  0  0  0  0
    2.5220   -1.5652   -4.6510 C   0  0  0  0  0  0  0  0  0  0  0  0
    3.8924   -1.3944   -4.4338 C   0  0  0  0  0  0  0  0  0  0  0  0
    4.6175   -0.7125   -5.4098 C   0  0  0  0  0  0  0  0  0  0  0  0
    3.9992   -0.2779   -6.6073 C   0  0  0  0  0  0  0  0  0  0  0  0
    2.6457   -0.4917   -6.8335 C   0  0  0  0  0  0  0  0  0  0  0  0
    5.9869   -0.4126   -5.2084 N   0  0  0  0  0  0  0  0  0  0  0  0
    6.5688   -0.0772   -4.0201 C   0  0  0  0  0  0  0  0  0  0  0  0
    5.9613   -0.0393   -2.9543 O   0  0  0  0  0  0  0  0  0  0  0  0
    8.0566    0.2250   -4.0885 C   0  0  0  0  0  0  0  0  0  0  0  0
    8.4533    1.3797   -3.1567 C   0  0  0  0  0  0  0  0  0  0  0  0
    9.9468    1.5941   -3.1213 C   0  0  0  0  0  0  0  0  0  0  0  0
   10.5707    2.4724   -4.0193 C   0  0  0  0  0  0  0  0  0  0  0  0
   11.9583    2.6355   -4.0165 C   0  0  0  0  0  0  0  0  0  0  0  0
   12.7462    1.9182   -3.1124 C   0  0  0  0  0  0  0  0  0  0  0  0
   12.1367    1.0405   -2.2112 C   0  0  0  0  0  0  0  0  0  0  0  0
   10.7491    0.8813   -2.2176 C   0  0  0  0  0  0  0  0  0  0  0  0
   -0.7966   -0.5108   -0.0848 H   0  0  0  0  0  0  0  0  0  0  0  0
    3.0864    1.0185    0.6328 H   0  0  0  0  0  0  0  0  0  0  0  0
    0.4272    1.2158    4.0766 H   0  0  0  0  0  0  0  0  0  0  0  0
   -1.1697    0.8861    4.7563 H   0  0  0  0  0  0  0  0  0  0  0  0
    1.9464    1.8257   -2.0519 H   0  0  0  0  0  0  0  0  0  0  0  0
    2.5438    0.6423   -3.2359 H   0  0  0  0  0  0  0  0  0  0  0  0
    4.4531    0.6091   -2.1565 H   0  0  0  0  0  0  0  0  0  0  0  0
    2.2678   -2.0503   -0.4771 H   0  0  0  0  0  0  0  0  0  0  0  0
    3.4300   -1.4389   -1.6353 H   0  0  0  0  0  0  0  0  0  0  0  0
    0.8095   -2.9787   -2.1172 H   0  0  0  0  0  0  0  0  0  0  0  0
    2.4515   -3.4957   -2.5232 H   0  0  0  0  0  0  0  0  0  0  0  0
   -0.5582   -2.3927   -3.9579 H   0  0  0  0  0  0  0  0  0  0  0  0
   -0.3199   -1.2415   -6.4041 H   0  0  0  0  0  0  0  0  0  0  0  0
    4.3786   -1.7373   -3.5263 H   0  0  0  0  0  0  0  0  0  0  0  0
    4.5995    0.2512   -7.3519 H   0  0  0  0  0  0  0  0  0  0  0  0
    2.1840   -0.1471   -7.7615 H   0  0  0  0  0  0  0  0  0  0  0  0
    6.5591   -0.3205   -6.0393 H   0  0  0  0  0  0  0  0  0  0  0  0
    8.3769    0.4305   -5.1229 H   0  0  0  0  0  0  0  0  0  0  0  0
    8.5879   -0.6912   -3.7753 H   0  0  0  0  0  0  0  0  0  0  0  0
    8.0684    1.1513   -2.1523 H   0  0  0  0  0  0  0  0  0  0  0  0
    7.9460    2.3004   -3.4876 H   0  0  0  0  0  0  0  0  0  0  0  0
    9.9590    3.0417   -4.7253 H   0  0  0  0  0  0  0  0  0  0  0  0
   12.4257    3.3290   -4.7200 H   0  0  0  0  0  0  0  0  0  0  0  0
   13.8312    2.0468   -3.1061 H   0  0  0  0  0  0  0  0  0  0  0  0
   12.7445    0.4811   -1.4958 H   0  0  0  0  0  0  0  0  0  0  0  0
   10.2771    0.1985   -1.5052 H   0  0  0  0  0  0  0  0  0  0  0  0
  1  2  1  0
  1  5  2  0
  1 35  1  0
  2  3  1  0
  2  9  1  0
  3  4  2  0
  3 36  1  0
  4  5  1  0
  5  6  1  0
  6  7  2  0
  6  8  1  0
  8 37  1  0
  8 38  1  0
  9 10  1  6
  9 11  1  0
  9 13  1  0
 11 12  1  0
 11 39  1  0
 11 40  1  0
 12 41  1  0
 13 14  1  0
 13 42  1  0
 13 43  1  0
 14 15  1  0
 14 44  1  0
 14 45  1  0
 15 16  1  0
 15 19  1  0
 16 17  2  0
 16 46  1  0
 17 18  1  0
 17 47  1  0
 18 19  2  0
 18 23  1  0
 19 20  1  0
 20 21  2  0
 20 48  1  0
 21 22  1  0
 21 24  1  0
 22 23  2  0
 22 49  1  0
 23 50  1  0
 24 25  1  0
 24 51  1  0
 25 26  2  0
 25 27  1  0
 27 28  1  0
 27 52  1  0
 27 53  1  0
 28 29  1  0
 28 54  1  0
 28 55  1  0
 29 30  2  0
 29 34  1  0
 30 31  1  0
 30 56  1  0
 31 32  2  0
 31 57  1  0
 32 33  1  0
 32 58  1  0
 33 34  2  0
 33 59  1  0
 34 60  1  0
M  END

