60

C         -0.29860        0.24630        0.01730
N          1.07630        0.20340        0.08440
C          1.41180        0.33050        1.40920
N          0.35100        0.45460        2.17420
C         -0.72770        0.40360        1.32130
C         -2.13850        0.51390        1.77600
O         -3.08160        0.45670        1.00060
N         -2.25860        0.68030        3.12050
C          2.00940       -0.04600       -1.01440
H          3.00590        0.19660       -0.61870
C          1.99270       -1.54170       -1.38150
O          0.74510       -1.95960       -1.88550
C          1.69660        0.86230       -2.21200
C          2.86450        1.03750       -3.18940
N          3.98790        1.77330       -2.63720
C          4.09460        3.15540       -2.59390
C          5.23540        3.52180       -1.92090
C          5.88200        2.30630       -1.50700
C          5.07050        1.23080       -1.97150
C          5.38040       -0.11340       -1.73590
C          6.53320       -0.38880       -0.99740
C          7.36440        0.66590       -0.53720
C          7.05180        1.99390       -0.78860
N          6.92370       -1.70440       -0.68230
C          6.27930       -2.87750       -0.97240
O          5.17180       -2.94550       -1.48810
C          7.09580       -4.12890       -0.68610
C          7.80400       -4.60780       -1.97640
C          8.73650       -3.55340       -2.52410
C          8.27670       -2.60580       -3.45110
C          9.09670       -1.55590       -3.86870
C         10.39660       -1.43920       -3.36830
C         10.87060       -2.38170       -2.45140
C         10.04470       -3.42880       -2.03290
H         -0.85560        0.19070       -0.91200
H          2.45180        0.32770        1.73660
H         -1.42440        0.71930        3.69390
H         -3.18070        0.76610        3.52600
H          2.30960       -2.13040       -0.50190
H          2.73930       -1.73900       -2.16380
H          0.12260       -2.02720       -1.14900
H          1.39580        1.85410       -1.84080
H          0.84130        0.43860       -2.76180
H          2.50940        1.57860       -4.07940
H          3.23170        0.06320       -3.54440
H          3.33240        3.77340       -3.06520
H          5.57730        4.53940       -1.74610
H          4.76710       -0.93360       -2.09080
H          8.26720        0.41870        0.02780
H          7.70670        2.78810       -0.42270
H          7.85960       -1.79470       -0.30600
H          6.40020       -4.90370       -0.33280
H          7.84320       -3.94840        0.10360
H          7.03170       -4.85630       -2.72030
H          8.35700       -5.53370       -1.75310
H          7.25390       -2.68040       -3.82930
H          8.71610       -0.82140       -4.58210
H         11.03880       -0.61720       -3.69320
H         11.88850       -2.30270       -2.06150
H         10.42030       -4.16160       -1.31240
