rmsd127.gzmat
 OpenBabel08211713373D

 60 63  0  0  1  0  0  0  0  0999 V2000
    0.0000    0.0000    0.0000 C   0  0  0  0  0  0  0  0  0  0  0  0
    1.3872    0.0000    0.0000 N   0  0  0  0  0  0  0  0  0  0  0  0
    1.8124    0.0000    1.3356 C   0  0  0  0  0  0  0  0  0  0  0  0
    0.7513   -0.0117    2.1526 N   0  0  0  0  0  0  0  0  0  0  0  0
   -0.3822   -0.0105    1.3444 C   0  0  0  0  0  0  0  0  0  0  0  0
   -1.7607   -0.0169    1.8473 C   0  0  0  0  0  0  0  0  0  0  0  0
   -2.7267    0.0165    1.1035 O   0  0  0  0  0  0  0  0  0  0  0  0
   -1.9363   -0.0636    3.2125 N   0  0  0  0  0  0  0  0  0  0  0  0
    2.1816    0.0580   -1.2219 C   0  0  1  0  0  0  0  0  0  0  0  0
    1.5564   -0.4362   -2.0310 H   0  0  0  0  0  0  0  0  0  0  0  0
    2.4025    1.5412   -1.6295 C   0  0  0  0  0  0  0  0  0  0  0  0
    2.4405    1.6309   -3.0328 O   0  0  0  0  0  0  0  0  0  0  0  0
    3.5068   -0.7080   -1.0917 C   0  0  0  0  0  0  0  0  0  0  0  0
    4.1350   -0.9597   -2.4825 C   0  0  0  0  0  0  0  0  0  0  0  0
    3.6899   -2.2144   -3.0675 N   0  0  0  0  0  0  0  0  0  0  0  0
    4.2897   -3.4596   -2.8262 C   0  0  0  0  0  0  0  0  0  0  0  0
    3.4747   -4.4670   -3.3068 C   0  0  0  0  0  0  0  0  0  0  0  0
    2.2893   -3.8493   -3.8265 C   0  0  0  0  0  0  0  0  0  0  0  0
    2.4519   -2.4346   -3.6645 C   0  0  0  0  0  0  0  0  0  0  0  0
    1.4619   -1.5270   -4.0629 C   0  0  0  0  0  0  0  0  0  0  0  0
    0.2525   -2.0609   -4.4757 C   0  0  0  0  0  0  0  0  0  0  0  0
    0.0801   -3.4596   -4.6699 C   0  0  0  0  0  0  0  0  0  0  0  0
    1.0977   -4.3415   -4.3682 C   0  0  0  0  0  0  0  0  0  0  0  0
   -0.8864   -1.2370   -4.6803 N   0  0  0  0  0  0  0  0  0  0  0  0
   -1.1263   -0.0911   -3.9345 C   0  0  0  0  0  0  0  0  0  0  0  0
   -0.2816    0.3816   -3.1974 O   0  0  0  0  0  0  0  0  0  0  0  0
   -2.5249    0.4753   -4.0281 C   0  0  0  0  0  0  0  0  0  0  0  0
   -2.4769    2.0045   -3.9063 C   0  0  0  0  0  0  0  0  0  0  0  0
   -1.9350    2.6077   -5.1662 C   0  0  0  0  0  0  0  0  0  0  0  0
   -2.7939    2.9133   -6.2233 C   0  0  0  0  0  0  0  0  0  0  0  0
   -2.2831    3.4470   -7.4043 C   0  0  0  0  0  0  0  0  0  0  0  0
   -0.9146    3.6782   -7.5327 C   0  0  0  0  0  0  0  0  0  0  0  0
   -0.0568    3.3809   -6.4746 C   0  0  0  0  0  0  0  0  0  0  0  0
   -0.5653    2.8485   -5.2927 C   0  0  0  0  0  0  0  0  0  0  0  0
   -0.5989    0.0053   -0.8967 H   0  0  0  0  0  0  0  0  0  0  0  0
    2.8430    0.0031    1.6368 H   0  0  0  0  0  0  0  0  0  0  0  0
   -1.1544   -0.0847    3.8357 H   0  0  0  0  0  0  0  0  0  0  0  0
   -2.8538   -0.0697    3.6029 H   0  0  0  0  0  0  0  0  0  0  0  0
    3.3850    1.9320   -1.3155 H   0  0  0  0  0  0  0  0  0  0  0  0
    1.6005    2.1948   -1.2381 H   0  0  0  0  0  0  0  0  0  0  0  0
    1.5683    1.3578   -3.4139 H   0  0  0  0  0  0  0  0  0  0  0  0
    3.3394   -1.6758   -0.5736 H   0  0  0  0  0  0  0  0  0  0  0  0
    4.2224   -0.1495   -0.4605 H   0  0  0  0  0  0  0  0  0  0  0  0
    5.2463   -0.9750   -2.3979 H   0  0  0  0  0  0  0  0  0  0  0  0
    3.8885   -0.1183   -3.1827 H   0  0  0  0  0  0  0  0  0  0  0  0
    5.2505   -3.5271   -2.3537 H   0  0  0  0  0  0  0  0  0  0  0  0
    3.6696   -5.5171   -3.3011 H   0  0  0  0  0  0  0  0  0  0  0  0
    1.6425   -0.4557   -4.0386 H   0  0  0  0  0  0  0  0  0  0  0  0
   -0.8677   -3.8327   -5.0454 H   0  0  0  0  0  0  0  0  0  0  0  0
    0.9781   -5.4125   -4.5240 H   0  0  0  0  0  0  0  0  0  0  0  0
   -1.5983   -1.5953   -5.3056 H   0  0  0  0  0  0  0  0  0  0  0  0
   -3.1251    0.0504   -3.1890 H   0  0  0  0  0  0  0  0  0  0  0  0
   -3.0449    0.1839   -4.9596 H   0  0  0  0  0  0  0  0  0  0  0  0
   -1.8545    2.2923   -3.0274 H   0  0  0  0  0  0  0  0  0  0  0  0
   -3.4892    2.3974   -3.6808 H   0  0  0  0  0  0  0  0  0  0  0  0
   -3.8624    2.7373   -6.1269 H   0  0  0  0  0  0  0  0  0  0  0  0
   -2.9546    3.6841   -8.2267 H   0  0  0  0  0  0  0  0  0  0  0  0
   -0.5162    4.0915   -8.4565 H   0  0  0  0  0  0  0  0  0  0  0  0
    1.0123    3.5642   -6.5710 H   0  0  0  0  0  0  0  0  0  0  0  0
    0.1066    2.6183   -4.4648 H   0  0  0  0  0  0  0  0  0  0  0  0
  1  5  1  0  0  0  0
  2  1  1  0  0  0  0
  2  3  1  0  0  0  0
  3 36  1  0  0  0  0
  3  4  2  0  0  0  0
  5  6  1  0  0  0  0
  5  4  2  0  0  0  0
  6  8  1  0  0  0  0
  7  6  2  0  0  0  0
  8 38  1  0  0  0  0
  8 37  1  0  0  0  0
  9 10  1  6  0  0  0
  9 13  1  0  0  0  0
  9  2  1  0  0  0  0
 11 39  1  0  0  0  0
 11 40  1  0  0  0  0
 11  9  1  0  0  0  0
 12 11  1  0  0  0  0
 13 42  1  0  0  0  0
 13 43  1  0  0  0  0
 14 44  1  0  0  0  0
 14 13  1  0  0  0  0
 15 16  1  0  0  0  0
 15 14  1  0  0  0  0
 16 46  1  0  0  0  0
 17 47  1  0  0  0  0
 17 16  2  0  0  0  0
 18 19  1  0  0  0  0
 18 17  1  0  0  0  0
 19 15  1  0  0  0  0
 20 48  1  0  0  0  0
 20 19  2  0  0  0  0
 21 20  1  0  0  0  0
 22 21  2  0  0  0  0
 22 23  1  0  0  0  0
 23 18  2  0  0  0  0
 24 21  1  0  0  0  0
 24 25  1  0  0  0  0
 25 26  2  0  0  0  0
 27 25  1  0  0  0  0
 27 28  1  0  0  0  0
 27 52  1  0  0  0  0
 28 55  1  0  0  0  0
 28 54  1  0  0  0  0
 29 28  1  0  0  0  0
 30 56  1  0  0  0  0
 30 29  2  0  0  0  0
 31 30  1  0  0  0  0
 32 31  2  0  0  0  0
 32 33  1  0  0  0  0
 33 34  2  0  0  0  0
 34 29  1  0  0  0  0
 34 60  1  0  0  0  0
 35  1  1  0  0  0  0
 41 12  1  0  0  0  0
 45 14  1  0  0  0  0
 49 22  1  0  0  0  0
 50 23  1  0  0  0  0
 51 24  1  0  0  0  0
 53 27  1  0  0  0  0
 57 31  1  0  0  0  0
 58 32  1  0  0  0  0
 59 33  1  0  0  0  0
M  RAD  1   1   2
M  END
$$$$
