
     RDKit          3D

 60 63  0  0  0  0  0  0  0  0999 V2000
    0.3085   -0.9732    0.8715 C   0  0  0  0  0  0  0  0  0  0  0  0
    1.2125   -0.3128    0.0759 N   0  0  0  0  0  0  0  0  0  0  0  0
    2.2895    0.0049    0.8700 C   0  0  0  0  0  0  0  0  0  0  0  0
    2.1124   -0.4009    2.1077 N   0  0  0  0  0  0  0  0  0  0  0  0
    0.8798   -1.0161    2.1275 C   0  0  0  0  0  0  0  0  0  0  0  0
    0.2876   -1.6184    3.3490 C   0  0  0  0  0  0  0  0  0  0  0  0
   -0.8070   -2.1634    3.3504 O   0  0  0  0  0  0  0  0  0  0  0  0
    1.0854   -1.4994    4.4451 N   0  0  0  0  0  0  0  0  0  0  0  0
    1.0975   -0.0825   -1.3674 C   0  0  1  0  0  0  0  0  0  0  0  0
    0.0197   -0.1022   -1.5893 H   0  0  0  0  0  0  0  0  0  0  0  0
    1.5817    1.3207   -1.7432 C   0  0  0  0  0  0  0  0  0  0  0  0
    2.9826    1.3578   -1.8835 O   0  0  0  0  0  0  0  0  0  0  0  0
    1.7833   -1.2558   -2.1006 C   0  0  0  0  0  0  0  0  0  0  0  0
    2.0678   -1.1022   -3.5975 C   0  0  0  0  0  0  0  0  0  0  0  0
    0.9575   -0.6422   -4.4141 N   0  0  0  0  0  0  0  0  0  0  0  0
   -0.2057   -1.3375   -4.6998 C   0  0  0  0  0  0  0  0  0  0  0  0
   -1.0355   -0.5700   -5.4854 C   0  0  0  0  0  0  0  0  0  0  0  0
   -0.3626    0.6816   -5.7044 C   0  0  0  0  0  0  0  0  0  0  0  0
    0.8865    0.5932   -5.0249 C   0  0  0  0  0  0  0  0  0  0  0  0
    1.8055    1.6453   -4.9892 C   0  0  0  0  0  0  0  0  0  0  0  0
    1.4391    2.8412   -5.5992 C   0  0  0  0  0  0  0  0  0  0  0  0
    0.2114    2.9527   -6.2992 C   0  0  0  0  0  0  0  0  0  0  0  0
   -0.6757    1.8857   -6.3658 C   0  0  0  0  0  0  0  0  0  0  0  0
    2.2789    3.9777   -5.5181 N   0  0  0  0  0  0  0  0  0  0  0  0
    3.1595    4.2887   -4.5262 C   0  0  0  0  0  0  0  0  0  0  0  0
    3.3376    3.6110   -3.5167 O   0  0  0  0  0  0  0  0  0  0  0  0
    4.0043    5.5249   -4.7806 C   0  0  0  0  0  0  0  0  0  0  0  0
    5.4543    5.1056   -5.1144 C   0  0  0  0  0  0  0  0  0  0  0  0
    5.5084    4.2094   -6.3292 C   0  0  0  0  0  0  0  0  0  0  0  0
    5.5410    4.7533   -7.6218 C   0  0  0  0  0  0  0  0  0  0  0  0
    5.4917    3.9278   -8.7480 C   0  0  0  0  0  0  0  0  0  0  0  0
    5.4049    2.5409   -8.5970 C   0  0  0  0  0  0  0  0  0  0  0  0
    5.3755    1.9870   -7.3143 C   0  0  0  0  0  0  0  0  0  0  0  0
    5.4287    2.8152   -6.1912 C   0  0  0  0  0  0  0  0  0  0  0  0
   -0.6448   -1.3438    0.5059 H   0  0  0  0  0  0  0  0  0  0  0  0
    3.1496    0.5365    0.4646 H   0  0  0  0  0  0  0  0  0  0  0  0
    1.9789   -1.0296    4.3591 H   0  0  0  0  0  0  0  0  0  0  0  0
    0.7700   -1.8775    5.3280 H   0  0  0  0  0  0  0  0  0  0  0  0
    1.2254    2.0191   -0.9612 H   0  0  0  0  0  0  0  0  0  0  0  0
    1.0839    1.6144   -2.6794 H   0  0  0  0  0  0  0  0  0  0  0  0
    3.2057    2.1902   -2.3431 H   0  0  0  0  0  0  0  0  0  0  0  0
    1.1768   -2.1577   -1.9163 H   0  0  0  0  0  0  0  0  0  0  0  0
    2.7556   -1.4353   -1.6176 H   0  0  0  0  0  0  0  0  0  0  0  0
    2.4235   -2.0701   -3.9881 H   0  0  0  0  0  0  0  0  0  0  0  0
    2.8832   -0.3825   -3.7246 H   0  0  0  0  0  0  0  0  0  0  0  0
   -0.3479   -2.3454   -4.3137 H   0  0  0  0  0  0  0  0  0  0  0  0
   -2.0138   -0.8635   -5.8592 H   0  0  0  0  0  0  0  0  0  0  0  0
    2.7429    1.5684   -4.4500 H   0  0  0  0  0  0  0  0  0  0  0  0
   -0.0430    3.9029   -6.7760 H   0  0  0  0  0  0  0  0  0  0  0  0
   -1.6194    1.9928   -6.9054 H   0  0  0  0  0  0  0  0  0  0  0  0
    2.2215    4.6324   -6.2887 H   0  0  0  0  0  0  0  0  0  0  0  0
    3.9940    6.1308   -3.8619 H   0  0  0  0  0  0  0  0  0  0  0  0
    3.5905    6.1342   -5.5999 H   0  0  0  0  0  0  0  0  0  0  0  0
    5.8696    4.5841   -4.2390 H   0  0  0  0  0  0  0  0  0  0  0  0
    6.0568    6.0131   -5.2755 H   0  0  0  0  0  0  0  0  0  0  0  0
    5.6086    5.8383   -7.7468 H   0  0  0  0  0  0  0  0  0  0  0  0
    5.5238    4.3686   -9.7475 H   0  0  0  0  0  0  0  0  0  0  0  0
    5.3637    1.8940   -9.4763 H   0  0  0  0  0  0  0  0  0  0  0  0
    5.3084    0.9039   -7.1868 H   0  0  0  0  0  0  0  0  0  0  0  0
    5.3974    2.3791   -5.1898 H   0  0  0  0  0  0  0  0  0  0  0  0
  1  2  1  0
  1  5  2  0
  1 35  1  0
  2  3  1  0
  2  9  1  0
  3  4  2  0
  3 36  1  0
  4  5  1  0
  5  6  1  0
  6  7  2  0
  6  8  1  0
  8 37  1  0
  8 38  1  0
  9 10  1  6
  9 11  1  0
  9 13  1  0
 11 12  1  0
 11 39  1  0
 11 40  1  0
 12 41  1  0
 13 14  1  0
 13 42  1  0
 13 43  1  0
 14 15  1  0
 14 44  1  0
 14 45  1  0
 15 16  1  0
 15 19  1  0
 16 17  2  0
 16 46  1  0
 17 18  1  0
 17 47  1  0
 18 19  2  0
 18 23  1  0
 19 20  1  0
 20 21  2  0
 20 48  1  0
 21 22  1  0
 21 24  1  0
 22 23  2  0
 22 49  1  0
 23 50  1  0
 24 25  1  0
 24 51  1  0
 25 26  2  0
 25 27  1  0
 27 28  1  0
 27 52  1  0
 27 53  1  0
 28 29  1  0
 28 54  1  0
 28 55  1  0
 29 30  2  0
 29 34  1  0
 30 31  1  0
 30 56  1  0
 31 32  2  0
 31 57  1  0
 32 33  1  0
 32 58  1  0
 33 34  2  0
 33 59  1  0
 34 60  1  0
M  END

