60
rmsd138.gzmat
C          0.00000        0.00000        0.00000
N          1.38620        0.00000        0.00000
C          1.81030        0.00000        1.33860
N          0.74960       -0.00200        2.15320
C         -0.38240       -0.01720        1.34490
C         -1.74660       -0.11250        1.87280
O         -2.68520       -0.47210        1.17300
N         -1.95460        0.21630        3.18650
C          2.21820       -0.10100       -1.19500
H          1.55000       -0.35100       -2.07160
C          2.89580        1.27000       -1.46310
O          3.67470        1.17180       -2.62810
C          3.28470       -1.19900       -1.05980
C          2.68400       -2.61990       -1.06390
N          2.00770       -2.92340       -2.31150
C          2.66230       -3.08200       -3.54650
C          1.73220       -3.04960       -4.56490
C          0.44550       -2.81710       -3.96950
C          0.64790       -2.72360       -2.55640
C         -0.40660       -2.49750       -1.66830
C         -1.68060       -2.31860       -2.21660
C         -1.89560       -2.42200       -3.61680
C         -0.84950       -2.67860       -4.47910
N         -2.71140       -1.98600       -1.32060
C         -4.08280       -2.02050       -1.59590
O         -4.52420       -2.37540       -2.66430
C         -4.94180       -1.59070       -0.43030
C         -6.41930       -1.59200       -0.83260
C         -7.26160       -1.24260        0.35490
C         -7.44220        0.09460        0.71680
C         -8.21130        0.41870        1.83160
C         -8.80320       -0.58980        2.59060
C         -8.62440       -1.92440        2.23090
C         -7.85580       -2.25160        1.11600
H         -0.59930        0.01410       -0.89480
H          2.84220        0.00980        1.64100
H         -1.19160        0.43440        3.79780
H         -2.86560        0.12220        3.59050
H          3.63190        1.53520       -0.68200
H          2.15380        2.08190       -1.55770
H          3.10910        1.07180       -3.42430
H          3.89330       -1.05690       -0.14850
H          4.00200       -1.09200       -1.90710
H          1.96790       -2.74220       -0.21600
H          3.49600       -3.36880       -0.89930
H          3.72310       -3.23150       -3.58960
H          1.90970       -3.18120       -5.60990
H         -0.24500       -2.49770       -0.59790
H         -2.90640       -2.30240       -4.01410
H         -1.02010       -2.76880       -5.55100
H         -2.42590       -1.64640       -0.39320
H         -4.63830       -0.58160       -0.06780
H         -4.77350       -2.25900        0.44130
H         -6.69800       -2.58150       -1.25490
H         -6.58790       -0.88070       -1.66850
H         -6.97900        0.88350        0.12800
H         -8.35220        1.46070        2.10990
H         -9.40400       -0.33550        3.45980
H         -9.08660       -2.71230        2.82170
H         -7.71780       -3.29490        0.83950
