60

C          0.30850       -0.97320        0.87150
N          1.21250       -0.31280        0.07590
C          2.28950        0.00490        0.87000
N          2.11240       -0.40090        2.10770
C          0.87980       -1.01610        2.12750
C          0.28760       -1.61840        3.34900
O         -0.80700       -2.16340        3.35040
N          1.08540       -1.49940        4.44510
C          1.09750       -0.08250       -1.36740
H          0.01970       -0.10220       -1.58930
C          1.58170        1.32070       -1.74320
O          2.98260        1.35780       -1.88350
C          1.78330       -1.25580       -2.10060
C          2.06780       -1.10220       -3.59750
N          0.95750       -0.64220       -4.41410
C         -0.20570       -1.33750       -4.69980
C         -1.03550       -0.57000       -5.48540
C         -0.36260        0.68160       -5.70440
C          0.88650        0.59320       -5.02490
C          1.80550        1.64530       -4.98920
C          1.43910        2.84120       -5.59920
C          0.21140        2.95270       -6.29920
C         -0.67570        1.88570       -6.36580
N          2.27890        3.97770       -5.51810
C          3.15950        4.28870       -4.52620
O          3.33760        3.61100       -3.51670
C          4.00430        5.52490       -4.78060
C          5.45430        5.10560       -5.11440
C          5.50840        4.20940       -6.32920
C          5.54100        4.75330       -7.62180
C          5.49170        3.92780       -8.74800
C          5.40490        2.54090       -8.59700
C          5.37550        1.98700       -7.31430
C          5.42870        2.81520       -6.19120
H         -0.64480       -1.34380        0.50590
H          3.14960        0.53650        0.46460
H          1.97890       -1.02960        4.35910
H          0.77000       -1.87750        5.32800
H          1.22540        2.01910       -0.96120
H          1.08390        1.61440       -2.67940
H          3.20570        2.19020       -2.34310
H          1.17680       -2.15770       -1.91630
H          2.75560       -1.43530       -1.61760
H          2.42350       -2.07010       -3.98810
H          2.88320       -0.38250       -3.72460
H         -0.34790       -2.34540       -4.31370
H         -2.01380       -0.86350       -5.85920
H          2.74290        1.56840       -4.45000
H         -0.04300        3.90290       -6.77600
H         -1.61940        1.99280       -6.90540
H          2.22150        4.63240       -6.28870
H          3.99400        6.13080       -3.86190
H          3.59050        6.13420       -5.59990
H          5.86960        4.58410       -4.23900
H          6.05680        6.01310       -5.27550
H          5.60860        5.83830       -7.74680
H          5.52380        4.36860       -9.74750
H          5.36370        1.89400       -9.47630
H          5.30840        0.90390       -7.18680
H          5.39740        2.37910       -5.18980
