60
rmsd77.gzmat
C          0.00000        0.00000        0.00000
N          1.38720        0.00000        0.00000
C          1.81350        0.00000        1.33560
N          0.75320       -0.01080        2.15250
C         -0.38110       -0.00930        1.34470
C         -1.75540       -0.00800        1.86070
O         -2.73060        0.02210        1.12990
N         -1.91220       -0.04040        3.22920
C          2.19860        0.07290       -1.20890
H          1.53350       -0.25660       -2.06750
C          2.61790        1.54540       -1.47210
O          2.70530        1.75170       -2.86010
C          3.41350       -0.86630       -1.13410
C          4.03960       -1.07210       -2.53240
N          3.47830       -2.22610       -3.21670
C          3.95410       -3.53870       -3.07360
C          3.04340       -4.42260       -3.62010
C          1.92290       -3.65510       -4.08280
C          2.22220       -2.28010       -3.81410
C          1.32610       -1.25200       -4.13360
C          0.07240       -1.63120       -4.58470
C         -0.23550       -2.98810       -4.88490
C          0.68900       -3.98610       -4.65390
N         -0.97590       -0.69210       -4.74350
C         -1.06050        0.50930       -4.05930
O         -0.17910        0.91030       -3.32340
C         -2.36310        1.26850       -4.21960
C         -2.48620        1.90210       -5.60960
C         -2.77080        0.87170       -6.66030
C         -4.01650        0.24020       -6.69820
C         -4.26960       -0.74650       -7.64750
C         -3.28230       -1.10560       -8.56410
C         -2.04400       -0.46730       -8.53650
C         -1.78870        0.52220       -7.58960
H         -0.59780        0.01200       -0.89630
H          2.84450        0.00280        1.63560
H         -1.12080       -0.05920        3.84090
H         -2.82370       -0.03790        3.63320
H          3.63380        1.77540       -1.10820
H          1.89760        2.25980       -1.03230
H          1.81100        1.66900       -3.27550
H          3.10980       -1.84710       -0.71020
H          4.17600       -0.46580       -0.44120
H          5.14150       -1.20920       -2.43810
H          3.89570       -0.15900       -3.16770
H          4.90500       -3.73340       -2.61650
H          3.13340       -5.48440       -3.69000
H          1.61160       -0.20890       -4.02810
H         -1.21370       -3.23470       -5.28850
H          0.46280       -5.02490       -4.88880
H         -1.72900       -0.95550       -5.37870
H         -2.40010        2.06180       -3.43680
H         -3.22850        0.60960       -4.00260
H         -1.56530        2.47680       -5.84610
H         -3.29650        2.66380       -5.60080
H         -4.79280        0.52210       -5.98890
H         -5.24160       -1.23630       -7.67560
H         -3.48040       -1.87920       -9.30320
H         -1.27320       -0.74180       -9.25560
H         -0.81860        1.01740       -7.57430
