60

C         -0.24690       -0.04470       -0.10080
N          1.07820        0.30370       -0.06960
C          1.39450        0.54870        1.24970
N          0.36060        0.36880        2.03850
C         -0.67160       -0.01930        1.21290
C         -1.99680       -0.43430        1.71470
O         -2.82140       -0.99890        0.99060
N         -2.21500       -0.16380        3.01990
C          1.99990        0.26100       -1.20650
H          1.38740       -0.02730       -2.07610
C          2.58540        1.65590       -1.48430
O          3.42550        1.65950       -2.61080
C          3.08330       -0.80220       -1.01050
C          2.55430       -2.24180       -0.99590
N          1.94890       -2.63260       -2.25310
C          2.64590       -2.74850       -3.45060
C          1.77480       -3.00670       -4.47930
C          0.45440       -3.05160       -3.90990
C          0.59790       -2.81640       -2.51170
C         -0.50490       -2.79820       -1.64890
C         -1.78620       -2.96100       -2.19590
C         -1.94210       -3.21560       -3.58530
C         -0.83750       -3.26630       -4.42390
N         -2.88200       -2.82670       -1.32590
C         -4.20270       -3.13320       -1.56220
O         -4.62430       -3.64010       -2.58900
C         -5.13370       -2.72020       -0.43100
C         -5.69320       -1.30370       -0.67970
C         -6.62610       -0.85580        0.41840
C         -6.12760       -0.19380        1.55170
C         -6.98110        0.18950        2.58870
C         -8.34950       -0.08790        2.51350
C         -8.85660       -0.74930        1.39160
C         -8.00030       -1.12860        0.35450
H         -0.76150       -0.29900       -1.02100
H          2.39380        0.84660        1.56410
H         -1.46860        0.24640        3.56990
H         -3.06340       -0.49870        3.45900
H          3.20540        1.97510       -0.63070
H          1.75230        2.37960       -1.57030
H          2.88940        1.50140       -3.39990
H          3.62940       -0.60800       -0.07230
H          3.80900       -0.67730       -1.82750
H          1.80690       -2.36990       -0.20030
H          3.38460       -2.92830       -0.76140
H          3.72950       -2.64540       -3.46160
H          2.04220       -3.16070       -5.52240
H         -0.39060       -2.65760       -0.57430
H         -2.94630       -3.37620       -3.96810
H         -0.97780       -3.46510       -5.48930
H         -2.69860       -2.33480       -0.44860
H         -4.61730       -2.73480        0.53910
H         -5.95930       -3.44570       -0.40660
H         -6.21460       -1.29950       -1.64990
H         -4.84670       -0.60430       -0.75290
H         -5.05650        0.01280        1.60680
H         -6.57810        0.71240        3.46050
H         -9.01830        0.21330        3.32360
H         -9.92530       -0.96750        1.32140
H         -8.40330       -1.64220       -0.52310
