
     RDKit          3D

 60 63  0  0  0  0  0  0  0  0999 V2000
    0.5534   -0.6092    0.9885 C   0  0  0  0  0  0  0  0  0  0  0  0
    1.6247   -0.0830    0.3080 N   0  0  0  0  0  0  0  0  0  0  0  0
    2.4715    0.4475    1.2519 C   0  0  0  0  0  0  0  0  0  0  0  0
    2.0087    0.2814    2.4704 N   0  0  0  0  0  0  0  0  0  0  0  0
    0.8080   -0.3773    2.3253 C   0  0  0  0  0  0  0  0  0  0  0  0
   -0.0539   -0.7665    3.4712 C   0  0  0  0  0  0  0  0  0  0  0  0
   -1.1184   -1.3492    3.3246 O   0  0  0  0  0  0  0  0  0  0  0  0
    0.4636   -0.4080    4.6777 N   0  0  0  0  0  0  0  0  0  0  0  0
    1.7785   -0.0338   -1.1462 C   0  0  1  0  0  0  0  0  0  0  0  0
    1.0087   -0.7075   -1.5456 H   0  0  0  0  0  0  0  0  0  0  0  0
    1.4718    1.4044   -1.6211 C   0  0  0  0  0  0  0  0  0  0  0  0
    1.5670    1.5676   -3.0115 O   0  0  0  0  0  0  0  0  0  0  0  0
    3.1636   -0.5526   -1.5687 C   0  0  0  0  0  0  0  0  0  0  0  0
    3.2469   -1.0820   -3.0075 C   0  0  0  0  0  0  0  0  0  0  0  0
    2.4802   -2.2987   -3.2240 N   0  0  0  0  0  0  0  0  0  0  0  0
    2.9128   -3.5843   -2.9407 C   0  0  0  0  0  0  0  0  0  0  0  0
    1.9013   -4.4887   -3.1659 C   0  0  0  0  0  0  0  0  0  0  0  0
    0.7601   -3.7329   -3.6042 C   0  0  0  0  0  0  0  0  0  0  0  0
    1.1618   -2.3659   -3.6277 C   0  0  0  0  0  0  0  0  0  0  0  0
    0.2995   -1.3266   -3.9878 C   0  0  0  0  0  0  0  0  0  0  0  0
   -1.0150   -1.6610   -4.3061 C   0  0  0  0  0  0  0  0  0  0  0  0
   -1.4378   -3.0151   -4.3036 C   0  0  0  0  0  0  0  0  0  0  0  0
   -0.5653   -4.0411   -3.9667 C   0  0  0  0  0  0  0  0  0  0  0  0
   -1.9725   -0.6778   -4.6452 N   0  0  0  0  0  0  0  0  0  0  0  0
   -1.9202    0.6684   -4.4653 C   0  0  0  0  0  0  0  0  0  0  0  0
   -0.9989    1.2651   -3.9094 O   0  0  0  0  0  0  0  0  0  0  0  0
   -3.0678    1.4449   -5.0865 C   0  0  0  0  0  0  0  0  0  0  0  0
   -2.5878    2.1393   -6.3825 C   0  0  0  0  0  0  0  0  0  0  0  0
   -2.0839    1.1390   -7.3961 C   0  0  0  0  0  0  0  0  0  0  0  0
   -2.9676    0.5158   -8.2896 C   0  0  0  0  0  0  0  0  0  0  0  0
   -2.5213   -0.4828   -9.1594 C   0  0  0  0  0  0  0  0  0  0  0  0
   -1.1802   -0.8764   -9.1447 C   0  0  0  0  0  0  0  0  0  0  0  0
   -0.2896   -0.2607   -8.2609 C   0  0  0  0  0  0  0  0  0  0  0  0
   -0.7385    0.7397   -7.3965 C   0  0  0  0  0  0  0  0  0  0  0  0
   -0.2775   -1.1000    0.4900 H   0  0  0  0  0  0  0  0  0  0  0  0
    3.4082    0.9343    0.9832 H   0  0  0  0  0  0  0  0  0  0  0  0
    1.3531    0.0752    4.7137 H   0  0  0  0  0  0  0  0  0  0  0  0
   -0.0518   -0.6272    5.5193 H   0  0  0  0  0  0  0  0  0  0  0  0
    2.1975    2.0822   -1.1341 H   0  0  0  0  0  0  0  0  0  0  0  0
    0.4702    1.6785   -1.2452 H   0  0  0  0  0  0  0  0  0  0  0  0
    0.6625    1.5522   -3.3807 H   0  0  0  0  0  0  0  0  0  0  0  0
    3.4554   -1.3620   -0.8807 H   0  0  0  0  0  0  0  0  0  0  0  0
    3.9112    0.2511   -1.4551 H   0  0  0  0  0  0  0  0  0  0  0  0
    4.2983   -1.2999   -3.2498 H   0  0  0  0  0  0  0  0  0  0  0  0
    2.8976   -0.3130   -3.7071 H   0  0  0  0  0  0  0  0  0  0  0  0
    3.9335   -3.7507   -2.6006 H   0  0  0  0  0  0  0  0  0  0  0  0
    1.9648   -5.5666   -3.0360 H   0  0  0  0  0  0  0  0  0  0  0  0
    0.6316   -0.2981   -3.9862 H   0  0  0  0  0  0  0  0  0  0  0  0
   -2.4741   -3.2478   -4.5627 H   0  0  0  0  0  0  0  0  0  0  0  0
   -0.9139   -5.0763   -3.9679 H   0  0  0  0  0  0  0  0  0  0  0  0
   -2.7915   -1.0240   -5.1302 H   0  0  0  0  0  0  0  0  0  0  0  0
   -3.3914    2.2013   -4.3559 H   0  0  0  0  0  0  0  0  0  0  0  0
   -3.9253    0.7896   -5.3075 H   0  0  0  0  0  0  0  0  0  0  0  0
   -1.7884    2.8471   -6.1158 H   0  0  0  0  0  0  0  0  0  0  0  0
   -3.4221    2.7249   -6.7989 H   0  0  0  0  0  0  0  0  0  0  0  0
   -4.0189    0.8188   -8.3049 H   0  0  0  0  0  0  0  0  0  0  0  0
   -3.2227   -0.9538   -9.8525 H   0  0  0  0  0  0  0  0  0  0  0  0
   -0.8299   -1.6591   -9.8216 H   0  0  0  0  0  0  0  0  0  0  0  0
    0.7600   -0.5632   -8.2410 H   0  0  0  0  0  0  0  0  0  0  0  0
   -0.0402    1.2091   -6.6991 H   0  0  0  0  0  0  0  0  0  0  0  0
  1  2  1  0
  1  5  2  0
  1 35  1  0
  2  3  1  0
  2  9  1  0
  3  4  2  0
  3 36  1  0
  4  5  1  0
  5  6  1  0
  6  7  2  0
  6  8  1  0
  8 37  1  0
  8 38  1  0
  9 10  1  6
  9 11  1  0
  9 13  1  0
 11 12  1  0
 11 39  1  0
 11 40  1  0
 12 41  1  0
 13 14  1  0
 13 42  1  0
 13 43  1  0
 14 15  1  0
 14 44  1  0
 14 45  1  0
 15 16  1  0
 15 19  1  0
 16 17  2  0
 16 46  1  0
 17 18  1  0
 17 47  1  0
 18 19  2  0
 18 23  1  0
 19 20  1  0
 20 21  2  0
 20 48  1  0
 21 22  1  0
 21 24  1  0
 22 23  2  0
 22 49  1  0
 23 50  1  0
 24 25  1  0
 24 51  1  0
 25 26  2  0
 25 27  1  0
 27 28  1  0
 27 52  1  0
 27 53  1  0
 28 29  1  0
 28 54  1  0
 28 55  1  0
 29 30  2  0
 29 34  1  0
 30 31  1  0
 30 56  1  0
 31 32  2  0
 31 57  1  0
 32 33  1  0
 32 58  1  0
 33 34  2  0
 33 59  1  0
 34 60  1  0
M  END

