60
rmsd172.gzmat
C          0.00000        0.00000        0.00000
N          1.38730        0.00000        0.00000
C          1.81540        0.00000        1.33500
N          0.75600        0.01600        2.15300
C         -0.37880        0.01320        1.34510
C         -1.75230        0.01500        1.86510
O         -2.72670       -0.02770        1.13370
N         -1.90570        0.06570        3.23240
C          2.23380       -0.09880       -1.18610
H          1.63020        0.23890       -2.07610
C          3.45350        0.85080       -1.05400
O          4.42670        0.26130       -0.22640
C          2.69490       -1.55560       -1.37670
C          1.74440       -2.37650       -2.26560
N          1.53960       -1.77230       -3.57610
C          0.29530       -1.38860       -4.09500
C          0.48340       -0.66060       -5.25540
C          1.89710       -0.54040       -5.46450
C          2.53570       -1.24770       -4.39280
C          3.92910       -1.30910       -4.27750
C          4.66870       -0.56590       -5.18290
C          4.06040        0.11760       -6.26960
C          2.68730        0.11500       -6.41580
N          6.07840       -0.46270       -5.02820
C          6.66360       -0.36410       -3.77100
O          5.99940       -0.43920       -2.75780
C          8.15770       -0.14530       -3.75880
C          8.44020        1.36370       -3.73280
C          9.91960        1.59620       -3.78170
C         10.55770        1.78370       -5.00910
C         11.93550        1.98550       -5.05400
C         12.67940        2.00170       -3.87550
C         12.04220        1.81490       -2.64980
C         10.66480        1.61310       -2.60130
H         -0.60450        0.00420       -0.88550
H          2.85780        0.00140        1.62180
H         -1.11110        0.09340        3.84070
H         -2.81620        0.06800        3.63900
H          3.18370        1.79290       -0.53890
H          3.87240        1.07960       -2.05140
H          5.13540       -0.14930       -0.77760
H          2.80560       -2.05640       -0.39200
H          3.72300       -1.56550       -1.80110
H          0.75700       -2.49890       -1.75910
H          2.16280       -3.40400       -2.40550
H         -0.62030       -1.67890       -3.61240
H         -0.27060       -0.25140       -5.89190
H          4.40750       -1.90120       -3.50140
H          4.68310        0.65280       -6.97970
H          2.21110        0.62960       -7.24920
H          6.62450       -0.29960       -5.86320
H          8.66560       -0.62830       -4.61490
H          8.58860       -0.62800       -2.85290
H          7.99870        1.81550       -2.81700
H          7.93200        1.87240       -4.57710
H          9.98280        1.77560       -5.93190
H         12.43090        2.13160       -6.01190
H         13.75520        2.16120       -3.91210
H         12.62150        1.82820       -1.72820
H         10.17030        1.47060       -1.64190
