rmsd172.gzmat
 OpenBabel08211713373D

 60 63  0  0  1  0  0  0  0  0999 V2000
    0.0000    0.0000    0.0000 C   0  0  0  0  0  0  0  0  0  0  0  0
    1.3873    0.0000    0.0000 N   0  0  0  0  0  0  0  0  0  0  0  0
    1.8154    0.0000    1.3350 C   0  0  0  0  0  0  0  0  0  0  0  0
    0.7560    0.0160    2.1530 N   0  0  0  0  0  0  0  0  0  0  0  0
   -0.3788    0.0132    1.3451 C   0  0  0  0  0  0  0  0  0  0  0  0
   -1.7523    0.0150    1.8651 C   0  0  0  0  0  0  0  0  0  0  0  0
   -2.7267   -0.0277    1.1337 O   0  0  0  0  0  0  0  0  0  0  0  0
   -1.9057    0.0657    3.2324 N   0  0  0  0  0  0  0  0  0  0  0  0
    2.2338   -0.0988   -1.1861 C   0  0  1  0  0  0  0  0  0  0  0  0
    1.6302    0.2389   -2.0761 H   0  0  0  0  0  0  0  0  0  0  0  0
    3.4535    0.8508   -1.0540 C   0  0  0  0  0  0  0  0  0  0  0  0
    4.4267    0.2613   -0.2264 O   0  0  0  0  0  0  0  0  0  0  0  0
    2.6949   -1.5556   -1.3767 C   0  0  0  0  0  0  0  0  0  0  0  0
    1.7444   -2.3765   -2.2656 C   0  0  0  0  0  0  0  0  0  0  0  0
    1.5396   -1.7723   -3.5761 N   0  0  0  0  0  0  0  0  0  0  0  0
    0.2953   -1.3886   -4.0950 C   0  0  0  0  0  0  0  0  0  0  0  0
    0.4834   -0.6606   -5.2554 C   0  0  0  0  0  0  0  0  0  0  0  0
    1.8971   -0.5404   -5.4645 C   0  0  0  0  0  0  0  0  0  0  0  0
    2.5357   -1.2477   -4.3928 C   0  0  0  0  0  0  0  0  0  0  0  0
    3.9291   -1.3091   -4.2775 C   0  0  0  0  0  0  0  0  0  0  0  0
    4.6687   -0.5659   -5.1829 C   0  0  0  0  0  0  0  0  0  0  0  0
    4.0604    0.1176   -6.2696 C   0  0  0  0  0  0  0  0  0  0  0  0
    2.6873    0.1150   -6.4158 C   0  0  0  0  0  0  0  0  0  0  0  0
    6.0784   -0.4627   -5.0282 N   0  0  0  0  0  0  0  0  0  0  0  0
    6.6636   -0.3641   -3.7710 C   0  0  0  0  0  0  0  0  0  0  0  0
    5.9994   -0.4392   -2.7578 O   0  0  0  0  0  0  0  0  0  0  0  0
    8.1577   -0.1453   -3.7588 C   0  0  0  0  0  0  0  0  0  0  0  0
    8.4402    1.3637   -3.7328 C   0  0  0  0  0  0  0  0  0  0  0  0
    9.9196    1.5962   -3.7817 C   0  0  0  0  0  0  0  0  0  0  0  0
   10.5577    1.7837   -5.0091 C   0  0  0  0  0  0  0  0  0  0  0  0
   11.9355    1.9855   -5.0540 C   0  0  0  0  0  0  0  0  0  0  0  0
   12.6794    2.0017   -3.8755 C   0  0  0  0  0  0  0  0  0  0  0  0
   12.0422    1.8149   -2.6498 C   0  0  0  0  0  0  0  0  0  0  0  0
   10.6648    1.6131   -2.6013 C   0  0  0  0  0  0  0  0  0  0  0  0
   -0.6045    0.0042   -0.8855 H   0  0  0  0  0  0  0  0  0  0  0  0
    2.8578    0.0014    1.6218 H   0  0  0  0  0  0  0  0  0  0  0  0
   -1.1111    0.0934    3.8407 H   0  0  0  0  0  0  0  0  0  0  0  0
   -2.8162    0.0680    3.6390 H   0  0  0  0  0  0  0  0  0  0  0  0
    3.1837    1.7929   -0.5389 H   0  0  0  0  0  0  0  0  0  0  0  0
    3.8724    1.0796   -2.0514 H   0  0  0  0  0  0  0  0  0  0  0  0
    5.1354   -0.1493   -0.7776 H   0  0  0  0  0  0  0  0  0  0  0  0
    2.8056   -2.0564   -0.3920 H   0  0  0  0  0  0  0  0  0  0  0  0
    3.7230   -1.5655   -1.8011 H   0  0  0  0  0  0  0  0  0  0  0  0
    0.7570   -2.4989   -1.7591 H   0  0  0  0  0  0  0  0  0  0  0  0
    2.1628   -3.4040   -2.4055 H   0  0  0  0  0  0  0  0  0  0  0  0
   -0.6203   -1.6789   -3.6124 H   0  0  0  0  0  0  0  0  0  0  0  0
   -0.2706   -0.2514   -5.8919 H   0  0  0  0  0  0  0  0  0  0  0  0
    4.4075   -1.9012   -3.5014 H   0  0  0  0  0  0  0  0  0  0  0  0
    4.6831    0.6528   -6.9797 H   0  0  0  0  0  0  0  0  0  0  0  0
    2.2111    0.6296   -7.2492 H   0  0  0  0  0  0  0  0  0  0  0  0
    6.6245   -0.2996   -5.8632 H   0  0  0  0  0  0  0  0  0  0  0  0
    8.6656   -0.6283   -4.6149 H   0  0  0  0  0  0  0  0  0  0  0  0
    8.5886   -0.6280   -2.8529 H   0  0  0  0  0  0  0  0  0  0  0  0
    7.9987    1.8155   -2.8170 H   0  0  0  0  0  0  0  0  0  0  0  0
    7.9320    1.8724   -4.5771 H   0  0  0  0  0  0  0  0  0  0  0  0
    9.9828    1.7756   -5.9319 H   0  0  0  0  0  0  0  0  0  0  0  0
   12.4309    2.1316   -6.0119 H   0  0  0  0  0  0  0  0  0  0  0  0
   13.7552    2.1612   -3.9121 H   0  0  0  0  0  0  0  0  0  0  0  0
   12.6215    1.8282   -1.7282 H   0  0  0  0  0  0  0  0  0  0  0  0
   10.1703    1.4706   -1.6419 H   0  0  0  0  0  0  0  0  0  0  0  0
  1  5  1  0  0  0  0
  2  1  1  0  0  0  0
  2  3  1  0  0  0  0
  3 36  1  0  0  0  0
  3  4  2  0  0  0  0
  5  6  1  0  0  0  0
  5  4  2  0  0  0  0
  6  8  1  0  0  0  0
  7  6  2  0  0  0  0
  8 38  1  0  0  0  0
  8 37  1  0  0  0  0
  9 10  1  6  0  0  0
  9 11  1  0  0  0  0
  9  2  1  0  0  0  0
 11 39  1  0  0  0  0
 11 12  1  0  0  0  0
 13  9  1  0  0  0  0
 13 42  1  0  0  0  0
 14 44  1  0  0  0  0
 14 13  1  0  0  0  0
 15 14  1  0  0  0  0
 16 46  1  0  0  0  0
 16 15  1  0  0  0  0
 17 16  2  0  0  0  0
 18 17  1  0  0  0  0
 18 19  2  0  0  0  0
 19 20  1  0  0  0  0
 19 15  1  0  0  0  0
 20 48  1  0  0  0  0
 21 24  1  0  0  0  0
 21 20  2  0  0  0  0
 22 21  1  0  0  0  0
 23 22  2  0  0  0  0
 23 18  1  0  0  0  0
 24 25  1  0  0  0  0
 25 27  1  0  0  0  0
 25 26  2  0  0  0  0
 27 28  1  0  0  0  0
 27 53  1  0  0  0  0
 28 54  1  0  0  0  0
 29 28  1  0  0  0  0
 29 34  2  0  0  0  0
 30 29  1  0  0  0  0
 31 30  2  0  0  0  0
 31 32  1  0  0  0  0
 32 33  2  0  0  0  0
 33 34  1  0  0  0  0
 33 59  1  0  0  0  0
 34 60  1  0  0  0  0
 35  1  1  0  0  0  0
 40 11  1  0  0  0  0
 41 12  1  0  0  0  0
 43 13  1  0  0  0  0
 45 14  1  0  0  0  0
 47 17  1  0  0  0  0
 49 22  1  0  0  0  0
 50 23  1  0  0  0  0
 51 24  1  0  0  0  0
 52 27  1  0  0  0  0
 55 28  1  0  0  0  0
 56 30  1  0  0  0  0
 57 31  1  0  0  0  0
 58 32  1  0  0  0  0
M  RAD  1   1   2
M  END
$$$$
