rmsd77.gzmat
 OpenBabel08211713373D

 60 63  0  0  1  0  0  0  0  0999 V2000
    0.0000    0.0000    0.0000 C   0  0  0  0  0  0  0  0  0  0  0  0
    1.3872    0.0000    0.0000 N   0  0  0  0  0  0  0  0  0  0  0  0
    1.8135    0.0000    1.3356 C   0  0  0  0  0  0  0  0  0  0  0  0
    0.7532   -0.0108    2.1525 N   0  0  0  0  0  0  0  0  0  0  0  0
   -0.3811   -0.0093    1.3447 C   0  0  0  0  0  0  0  0  0  0  0  0
   -1.7554   -0.0080    1.8607 C   0  0  0  0  0  0  0  0  0  0  0  0
   -2.7306    0.0221    1.1299 O   0  0  0  0  0  0  0  0  0  0  0  0
   -1.9122   -0.0404    3.2292 N   0  0  0  0  0  0  0  0  0  0  0  0
    2.1986    0.0729   -1.2089 C   0  0  1  0  0  0  0  0  0  0  0  0
    1.5335   -0.2566   -2.0675 H   0  0  0  0  0  0  0  0  0  0  0  0
    2.6179    1.5454   -1.4721 C   0  0  0  0  0  0  0  0  0  0  0  0
    2.7053    1.7517   -2.8601 O   0  0  0  0  0  0  0  0  0  0  0  0
    3.4135   -0.8663   -1.1341 C   0  0  0  0  0  0  0  0  0  0  0  0
    4.0396   -1.0721   -2.5324 C   0  0  0  0  0  0  0  0  0  0  0  0
    3.4783   -2.2261   -3.2167 N   0  0  0  0  0  0  0  0  0  0  0  0
    3.9541   -3.5387   -3.0736 C   0  0  0  0  0  0  0  0  0  0  0  0
    3.0434   -4.4226   -3.6201 C   0  0  0  0  0  0  0  0  0  0  0  0
    1.9229   -3.6551   -4.0828 C   0  0  0  0  0  0  0  0  0  0  0  0
    2.2222   -2.2801   -3.8141 C   0  0  0  0  0  0  0  0  0  0  0  0
    1.3261   -1.2520   -4.1336 C   0  0  0  0  0  0  0  0  0  0  0  0
    0.0724   -1.6312   -4.5847 C   0  0  0  0  0  0  0  0  0  0  0  0
   -0.2355   -2.9881   -4.8849 C   0  0  0  0  0  0  0  0  0  0  0  0
    0.6890   -3.9861   -4.6539 C   0  0  0  0  0  0  0  0  0  0  0  0
   -0.9759   -0.6921   -4.7435 N   0  0  0  0  0  0  0  0  0  0  0  0
   -1.0605    0.5093   -4.0593 C   0  0  0  0  0  0  0  0  0  0  0  0
   -0.1791    0.9103   -3.3234 O   0  0  0  0  0  0  0  0  0  0  0  0
   -2.3631    1.2685   -4.2196 C   0  0  0  0  0  0  0  0  0  0  0  0
   -2.4862    1.9021   -5.6096 C   0  0  0  0  0  0  0  0  0  0  0  0
   -2.7708    0.8717   -6.6603 C   0  0  0  0  0  0  0  0  0  0  0  0
   -4.0165    0.2402   -6.6982 C   0  0  0  0  0  0  0  0  0  0  0  0
   -4.2696   -0.7465   -7.6475 C   0  0  0  0  0  0  0  0  0  0  0  0
   -3.2823   -1.1056   -8.5641 C   0  0  0  0  0  0  0  0  0  0  0  0
   -2.0440   -0.4673   -8.5365 C   0  0  0  0  0  0  0  0  0  0  0  0
   -1.7887    0.5222   -7.5896 C   0  0  0  0  0  0  0  0  0  0  0  0
   -0.5978    0.0120   -0.8963 H   0  0  0  0  0  0  0  0  0  0  0  0
    2.8445    0.0028    1.6356 H   0  0  0  0  0  0  0  0  0  0  0  0
   -1.1208   -0.0592    3.8409 H   0  0  0  0  0  0  0  0  0  0  0  0
   -2.8237   -0.0379    3.6332 H   0  0  0  0  0  0  0  0  0  0  0  0
    3.6338    1.7754   -1.1082 H   0  0  0  0  0  0  0  0  0  0  0  0
    1.8976    2.2598   -1.0323 H   0  0  0  0  0  0  0  0  0  0  0  0
    1.8110    1.6690   -3.2755 H   0  0  0  0  0  0  0  0  0  0  0  0
    3.1098   -1.8471   -0.7102 H   0  0  0  0  0  0  0  0  0  0  0  0
    4.1760   -0.4658   -0.4412 H   0  0  0  0  0  0  0  0  0  0  0  0
    5.1415   -1.2092   -2.4381 H   0  0  0  0  0  0  0  0  0  0  0  0
    3.8957   -0.1590   -3.1677 H   0  0  0  0  0  0  0  0  0  0  0  0
    4.9050   -3.7334   -2.6165 H   0  0  0  0  0  0  0  0  0  0  0  0
    3.1334   -5.4844   -3.6900 H   0  0  0  0  0  0  0  0  0  0  0  0
    1.6116   -0.2089   -4.0281 H   0  0  0  0  0  0  0  0  0  0  0  0
   -1.2137   -3.2347   -5.2885 H   0  0  0  0  0  0  0  0  0  0  0  0
    0.4628   -5.0249   -4.8888 H   0  0  0  0  0  0  0  0  0  0  0  0
   -1.7290   -0.9555   -5.3787 H   0  0  0  0  0  0  0  0  0  0  0  0
   -2.4001    2.0618   -3.4368 H   0  0  0  0  0  0  0  0  0  0  0  0
   -3.2285    0.6096   -4.0026 H   0  0  0  0  0  0  0  0  0  0  0  0
   -1.5653    2.4768   -5.8461 H   0  0  0  0  0  0  0  0  0  0  0  0
   -3.2965    2.6638   -5.6008 H   0  0  0  0  0  0  0  0  0  0  0  0
   -4.7928    0.5221   -5.9889 H   0  0  0  0  0  0  0  0  0  0  0  0
   -5.2416   -1.2363   -7.6756 H   0  0  0  0  0  0  0  0  0  0  0  0
   -3.4804   -1.8792   -9.3032 H   0  0  0  0  0  0  0  0  0  0  0  0
   -1.2732   -0.7418   -9.2556 H   0  0  0  0  0  0  0  0  0  0  0  0
   -0.8186    1.0174   -7.5743 H   0  0  0  0  0  0  0  0  0  0  0  0
  1  5  1  0  0  0  0
  2  1  1  0  0  0  0
  2  3  1  0  0  0  0
  3 36  1  0  0  0  0
  3  4  2  0  0  0  0
  5  6  1  0  0  0  0
  5  4  2  0  0  0  0
  6  8  1  0  0  0  0
  7  6  2  0  0  0  0
  8 38  1  0  0  0  0
  8 37  1  0  0  0  0
  9 10  1  6  0  0  0
  9 13  1  0  0  0  0
  9  2  1  0  0  0  0
 11  9  1  0  0  0  0
 11 39  1  0  0  0  0
 11 40  1  0  0  0  0
 12 11  1  0  0  0  0
 13 42  1  0  0  0  0
 13 43  1  0  0  0  0
 14 44  1  0  0  0  0
 14 13  1  0  0  0  0
 15 16  1  0  0  0  0
 15 14  1  0  0  0  0
 16 46  1  0  0  0  0
 17 16  2  0  0  0  0
 18 19  2  0  0  0  0
 18 17  1  0  0  0  0
 19 15  1  0  0  0  0
 20 48  1  0  0  0  0
 20 19  1  0  0  0  0
 21 20  2  0  0  0  0
 22 23  2  0  0  0  0
 22 21  1  0  0  0  0
 23 18  1  0  0  0  0
 24 21  1  0  0  0  0
 24 25  1  0  0  0  0
 25 26  2  0  0  0  0
 27 25  1  0  0  0  0
 27 53  1  0  0  0  0
 27 52  1  0  0  0  0
 28 55  1  0  0  0  0
 28 27  1  0  0  0  0
 29 28  1  0  0  0  0
 30 29  1  0  0  0  0
 30 56  1  0  0  0  0
 31 30  2  0  0  0  0
 32 33  2  0  0  0  0
 32 31  1  0  0  0  0
 33 34  1  0  0  0  0
 34 60  1  0  0  0  0
 34 29  2  0  0  0  0
 35  1  1  0  0  0  0
 41 12  1  0  0  0  0
 45 14  1  0  0  0  0
 47 17  1  0  0  0  0
 49 22  1  0  0  0  0
 50 23  1  0  0  0  0
 51 24  1  0  0  0  0
 54 28  1  0  0  0  0
 57 31  1  0  0  0  0
 58 32  1  0  0  0  0
 59 33  1  0  0  0  0
M  RAD  1   1   2
M  END
$$$$
