rmsd212.gzmat
 OpenBabel08211713373D

 60 63  0  0  1  0  0  0  0  0999 V2000
    0.0000    0.0000    0.0000 C   0  0  0  0  0  0  0  0  0  0  0  0
    1.3860    0.0000    0.0000 N   0  0  0  0  0  0  0  0  0  0  0  0
    1.8139    0.0000    1.3369 C   0  0  0  0  0  0  0  0  0  0  0  0
    0.7550    0.0158    2.1542 N   0  0  0  0  0  0  0  0  0  0  0  0
   -0.3790    0.0165    1.3457 C   0  0  0  0  0  0  0  0  0  0  0  0
   -1.7528    0.0371    1.8642 C   0  0  0  0  0  0  0  0  0  0  0  0
   -2.7268    0.0315    1.1316 O   0  0  0  0  0  0  0  0  0  0  0  0
   -1.9070    0.0700    3.2323 N   0  0  0  0  0  0  0  0  0  0  0  0
    2.2700   -0.0313   -1.1575 C   0  0  1  0  0  0  0  0  0  0  0  0
    3.3159    0.1969   -0.7819 H   0  0  0  0  0  0  0  0  0  0  0  0
    2.3183   -1.4631   -1.7537 C   0  0  0  0  0  0  0  0  0  0  0  0
    3.4788   -1.5932   -2.5381 O   0  0  0  0  0  0  0  0  0  0  0  0
    1.8800    1.0090   -2.2179 C   0  0  0  0  0  0  0  0  0  0  0  0
    2.5344    2.3853   -1.9616 C   0  0  0  0  0  0  0  0  0  0  0  0
    3.7387    2.5649   -2.7648 N   0  0  0  0  0  0  0  0  0  0  0  0
    3.7223    3.0500   -4.0861 C   0  0  0  0  0  0  0  0  0  0  0  0
    4.8844    2.6818   -4.7323 C   0  0  0  0  0  0  0  0  0  0  0  0
    5.6460    1.8697   -3.8233 C   0  0  0  0  0  0  0  0  0  0  0  0
    4.9018    1.8101   -2.6016 C   0  0  0  0  0  0  0  0  0  0  0  0
    5.3596    1.0947   -1.4907 C   0  0  0  0  0  0  0  0  0  0  0  0
    6.4899    0.3109   -1.6716 C   0  0  0  0  0  0  0  0  0  0  0  0
    7.2481    0.3606   -2.8724 C   0  0  0  0  0  0  0  0  0  0  0  0
    6.8419    1.1534   -3.9286 C   0  0  0  0  0  0  0  0  0  0  0  0
    6.9202   -0.5915   -0.6655 N   0  0  0  0  0  0  0  0  0  0  0  0
    6.0532   -1.1717    0.2537 C   0  0  0  0  0  0  0  0  0  0  0  0
    4.8959   -0.8185    0.3635 O   0  0  0  0  0  0  0  0  0  0  0  0
    6.6350   -2.2894    1.0915 C   0  0  0  0  0  0  0  0  0  0  0  0
    6.3229   -3.6264    0.3981 C   0  0  0  0  0  0  0  0  0  0  0  0
    6.8460   -3.6337   -1.0073 C   0  0  0  0  0  0  0  0  0  0  0  0
    8.2224   -3.6779   -1.2402 C   0  0  0  0  0  0  0  0  0  0  0  0
    8.7112   -3.6166   -2.5427 C   0  0  0  0  0  0  0  0  0  0  0  0
    7.8292   -3.5134   -3.6170 C   0  0  0  0  0  0  0  0  0  0  0  0
    6.4550   -3.4879   -3.3866 C   0  0  0  0  0  0  0  0  0  0  0  0
    5.9629   -3.5533   -2.0850 C   0  0  0  0  0  0  0  0  0  0  0  0
   -0.6073   -0.0128   -0.8838 H   0  0  0  0  0  0  0  0  0  0  0  0
    2.8556   -0.0207    1.6261 H   0  0  0  0  0  0  0  0  0  0  0  0
   -1.1136    0.0654    3.8419 H   0  0  0  0  0  0  0  0  0  0  0  0
   -2.8177    0.0828    3.6383 H   0  0  0  0  0  0  0  0  0  0  0  0
    1.4972   -1.6677   -2.4623 H   0  0  0  0  0  0  0  0  0  0  0  0
    2.3268   -2.2301   -0.9570 H   0  0  0  0  0  0  0  0  0  0  0  0
    4.2769   -1.3170   -2.0269 H   0  0  0  0  0  0  0  0  0  0  0  0
    0.7821    1.1203   -2.2841 H   0  0  0  0  0  0  0  0  0  0  0  0
    2.1935    0.6303   -3.2191 H   0  0  0  0  0  0  0  0  0  0  0  0
    2.7930    2.5104   -0.8834 H   0  0  0  0  0  0  0  0  0  0  0  0
    1.8162    3.2037   -2.2019 H   0  0  0  0  0  0  0  0  0  0  0  0
    2.8999    3.6417   -4.4409 H   0  0  0  0  0  0  0  0  0  0  0  0
    5.1837    2.9372   -5.7253 H   0  0  0  0  0  0  0  0  0  0  0  0
    4.8527    1.1640   -0.5308 H   0  0  0  0  0  0  0  0  0  0  0  0
    8.1490   -0.2409   -2.9607 H   0  0  0  0  0  0  0  0  0  0  0  0
    7.4280    1.2092   -4.8450 H   0  0  0  0  0  0  0  0  0  0  0  0
    7.8388   -1.0096   -0.8011 H   0  0  0  0  0  0  0  0  0  0  0  0
    6.1673   -2.2659    2.1003 H   0  0  0  0  0  0  0  0  0  0  0  0
    7.7208   -2.1728    1.2593 H   0  0  0  0  0  0  0  0  0  0  0  0
    5.2253   -3.8070    0.4166 H   0  0  0  0  0  0  0  0  0  0  0  0
    6.7611   -4.4635    0.9800 H   0  0  0  0  0  0  0  0  0  0  0  0
    8.9132   -3.7689   -0.4060 H   0  0  0  0  0  0  0  0  0  0  0  0
    9.7840   -3.6530   -2.7217 H   0  0  0  0  0  0  0  0  0  0  0  0
    8.2123   -3.4572   -4.6338 H   0  0  0  0  0  0  0  0  0  0  0  0
    5.7601   -3.4081   -4.2233 H   0  0  0  0  0  0  0  0  0  0  0  0
    4.8842   -3.5330   -1.9177 H   0  0  0  0  0  0  0  0  0  0  0  0
  1  2  1  0  0  0  0
  1  5  1  0  0  0  0
  2  3  1  0  0  0  0
  3 36  1  0  0  0  0
  3  4  2  0  0  0  0
  5  6  1  0  0  0  0
  5  4  2  0  0  0  0
  6  8  1  0  0  0  0
  7  6  2  0  0  0  0
  8 38  1  0  0  0  0
  8 37  1  0  0  0  0
  9 10  1  1  0  0  0
  9  2  1  0  0  0  0
 11  9  1  0  0  0  0
 11 40  1  0  0  0  0
 12 41  1  0  0  0  0
 12 11  1  0  0  0  0
 13 14  1  0  0  0  0
 13  9  1  0  0  0  0
 14 44  1  0  0  0  0
 15 19  1  0  0  0  0
 15 14  1  0  0  0  0
 16 15  1  0  0  0  0
 17 16  2  0  0  0  0
 17 18  1  0  0  0  0
 18 19  1  0  0  0  0
 19 20  2  0  0  0  0
 20 48  1  0  0  0  0
 21 20  1  0  0  0  0
 21 24  1  0  0  0  0
 22 21  2  0  0  0  0
 23 18  2  0  0  0  0
 23 22  1  0  0  0  0
 24 25  1  0  0  0  0
 25 26  2  0  0  0  0
 25 27  1  0  0  0  0
 27 53  1  0  0  0  0
 27 52  1  0  0  0  0
 28 54  1  0  0  0  0
 28 55  1  0  0  0  0
 28 27  1  0  0  0  0
 29 28  1  0  0  0  0
 30 29  1  0  0  0  0
 30 56  1  0  0  0  0
 31 30  2  0  0  0  0
 32 33  2  0  0  0  0
 32 31  1  0  0  0  0
 33 34  1  0  0  0  0
 34 60  1  0  0  0  0
 34 29  2  0  0  0  0
 35  1  1  0  0  0  0
 39 11  1  0  0  0  0
 42 13  1  0  0  0  0
 43 13  1  0  0  0  0
 45 14  1  0  0  0  0
 46 16  1  0  0  0  0
 47 17  1  0  0  0  0
 49 22  1  0  0  0  0
 50 23  1  0  0  0  0
 51 24  1  0  0  0  0
 57 31  1  0  0  0  0
 58 32  1  0  0  0  0
 59 33  1  0  0  0  0
M  RAD  1   1   2
M  END
$$$$
