60

C         -0.34630        0.07640       -0.06120
N          0.93480        0.15810        0.43380
C          0.85350        0.82730        1.63100
N         -0.38000        1.17440        1.91610
C         -1.14470        0.71240        0.86850
C         -2.61740        0.89610        0.78390
O         -3.27390        0.48520       -0.16160
N         -3.13880        1.55830        1.85130
C          2.14890       -0.38750       -0.16780
H          2.97800       -0.02370        0.46190
C          2.16790       -1.92630       -0.07940
O          3.37980       -2.46410       -0.53010
C          2.36280        0.12740       -1.59020
C          2.66990        1.63950       -1.65740
N          3.75130        1.94720       -2.57500
C          3.67520        2.61560       -3.78590
C          4.89360        2.57550       -4.42510
C          5.78270        1.82150       -3.58130
C          5.02980        1.45370       -2.43060
C          5.54650        0.67590       -1.39130
C          6.84680        0.19720       -1.53660
C          7.62870        0.56250       -2.66170
C          7.11510        1.37240       -3.66610
N          7.40310       -0.73340       -0.62800
C          6.73650       -1.51800        0.26340
O          5.58480       -1.29820        0.64450
C          7.45810       -2.78860        0.66770
C          6.96270       -3.95110       -0.23440
C          7.15380       -3.63160       -1.69980
C          8.42520       -3.72090       -2.28760
C          8.63760       -3.29360       -3.60120
C          7.57780       -2.76620       -4.34520
C          6.30660       -2.68390       -3.77240
C          6.09310       -3.11740       -2.46150
H         -0.60010       -0.40630       -0.99970
H          1.73980        1.02470        2.23470
H         -2.52470        1.86440        2.59650
H         -4.13470        1.72910        1.88660
H          1.36370       -2.34310       -0.70870
H          1.94130       -2.20980        0.96750
H          4.11500       -2.10440        0.00740
H          1.49130       -0.12130       -2.21580
H          3.20840       -0.43750       -2.00310
H          2.94940        2.00760       -0.65470
H          1.78780        2.21780       -1.96380
H          2.73780        3.07380       -4.09640
H          5.12460        3.02410       -5.38860
H          4.96610        0.40250       -0.51990
H          8.64250        0.16460       -2.75300
H          7.73550        1.63010       -4.52750
H          8.32020       -1.07250       -0.89470
H          7.22400       -3.00080        1.72080
H          8.54990       -2.67740        0.57000
H          5.89640       -4.12570       -0.02570
H          7.50940       -4.86610        0.04370
H          9.25980       -4.12850       -1.70850
H          9.63310       -3.37330       -4.04550
H          7.74340       -2.41960       -5.36780
H          5.47470       -2.26660       -4.34430
H          5.09830       -3.03100       -2.01740
