
     RDKit          3D

 60 63  0  0  0  0  0  0  0  0999 V2000
   -0.2469   -0.0447   -0.1008 C   0  0  0  0  0  0  0  0  0  0  0  0
    1.0782    0.3037   -0.0696 N   0  0  0  0  0  0  0  0  0  0  0  0
    1.3945    0.5487    1.2497 C   0  0  0  0  0  0  0  0  0  0  0  0
    0.3606    0.3688    2.0385 N   0  0  0  0  0  0  0  0  0  0  0  0
   -0.6716   -0.0193    1.2129 C   0  0  0  0  0  0  0  0  0  0  0  0
   -1.9968   -0.4343    1.7147 C   0  0  0  0  0  0  0  0  0  0  0  0
   -2.8214   -0.9989    0.9906 O   0  0  0  0  0  0  0  0  0  0  0  0
   -2.2150   -0.1638    3.0199 N   0  0  0  0  0  0  0  0  0  0  0  0
    1.9999    0.2610   -1.2065 C   0  0  1  0  0  0  0  0  0  0  0  0
    1.3874   -0.0273   -2.0761 H   0  0  0  0  0  0  0  0  0  0  0  0
    2.5854    1.6559   -1.4843 C   0  0  0  0  0  0  0  0  0  0  0  0
    3.4255    1.6595   -2.6108 O   0  0  0  0  0  0  0  0  0  0  0  0
    3.0833   -0.8022   -1.0105 C   0  0  0  0  0  0  0  0  0  0  0  0
    2.5543   -2.2418   -0.9959 C   0  0  0  0  0  0  0  0  0  0  0  0
    1.9489   -2.6326   -2.2531 N   0  0  0  0  0  0  0  0  0  0  0  0
    2.6459   -2.7485   -3.4506 C   0  0  0  0  0  0  0  0  0  0  0  0
    1.7748   -3.0067   -4.4793 C   0  0  0  0  0  0  0  0  0  0  0  0
    0.4544   -3.0516   -3.9099 C   0  0  0  0  0  0  0  0  0  0  0  0
    0.5979   -2.8164   -2.5117 C   0  0  0  0  0  0  0  0  0  0  0  0
   -0.5049   -2.7982   -1.6489 C   0  0  0  0  0  0  0  0  0  0  0  0
   -1.7862   -2.9610   -2.1959 C   0  0  0  0  0  0  0  0  0  0  0  0
   -1.9421   -3.2156   -3.5853 C   0  0  0  0  0  0  0  0  0  0  0  0
   -0.8375   -3.2663   -4.4239 C   0  0  0  0  0  0  0  0  0  0  0  0
   -2.8820   -2.8267   -1.3259 N   0  0  0  0  0  0  0  0  0  0  0  0
   -4.2027   -3.1332   -1.5622 C   0  0  0  0  0  0  0  0  0  0  0  0
   -4.6243   -3.6401   -2.5890 O   0  0  0  0  0  0  0  0  0  0  0  0
   -5.1337   -2.7202   -0.4310 C   0  0  0  0  0  0  0  0  0  0  0  0
   -5.6932   -1.3037   -0.6797 C   0  0  0  0  0  0  0  0  0  0  0  0
   -6.6261   -0.8558    0.4184 C   0  0  0  0  0  0  0  0  0  0  0  0
   -6.1276   -0.1938    1.5517 C   0  0  0  0  0  0  0  0  0  0  0  0
   -6.9811    0.1895    2.5887 C   0  0  0  0  0  0  0  0  0  0  0  0
   -8.3495   -0.0879    2.5135 C   0  0  0  0  0  0  0  0  0  0  0  0
   -8.8566   -0.7493    1.3916 C   0  0  0  0  0  0  0  0  0  0  0  0
   -8.0003   -1.1286    0.3545 C   0  0  0  0  0  0  0  0  0  0  0  0
   -0.7615   -0.2990   -1.0210 H   0  0  0  0  0  0  0  0  0  0  0  0
    2.3938    0.8466    1.5641 H   0  0  0  0  0  0  0  0  0  0  0  0
   -1.4686    0.2464    3.5699 H   0  0  0  0  0  0  0  0  0  0  0  0
   -3.0634   -0.4987    3.4590 H   0  0  0  0  0  0  0  0  0  0  0  0
    3.2054    1.9751   -0.6307 H   0  0  0  0  0  0  0  0  0  0  0  0
    1.7523    2.3796   -1.5703 H   0  0  0  0  0  0  0  0  0  0  0  0
    2.8894    1.5014   -3.3999 H   0  0  0  0  0  0  0  0  0  0  0  0
    3.6294   -0.6080   -0.0723 H   0  0  0  0  0  0  0  0  0  0  0  0
    3.8090   -0.6773   -1.8275 H   0  0  0  0  0  0  0  0  0  0  0  0
    1.8069   -2.3699   -0.2003 H   0  0  0  0  0  0  0  0  0  0  0  0
    3.3846   -2.9283   -0.7614 H   0  0  0  0  0  0  0  0  0  0  0  0
    3.7295   -2.6454   -3.4616 H   0  0  0  0  0  0  0  0  0  0  0  0
    2.0422   -3.1607   -5.5224 H   0  0  0  0  0  0  0  0  0  0  0  0
   -0.3906   -2.6576   -0.5743 H   0  0  0  0  0  0  0  0  0  0  0  0
   -2.9463   -3.3762   -3.9681 H   0  0  0  0  0  0  0  0  0  0  0  0
   -0.9778   -3.4651   -5.4893 H   0  0  0  0  0  0  0  0  0  0  0  0
   -2.6986   -2.3348   -0.4486 H   0  0  0  0  0  0  0  0  0  0  0  0
   -4.6173   -2.7348    0.5391 H   0  0  0  0  0  0  0  0  0  0  0  0
   -5.9593   -3.4457   -0.4066 H   0  0  0  0  0  0  0  0  0  0  0  0
   -6.2146   -1.2995   -1.6499 H   0  0  0  0  0  0  0  0  0  0  0  0
   -4.8467   -0.6043   -0.7529 H   0  0  0  0  0  0  0  0  0  0  0  0
   -5.0565    0.0128    1.6068 H   0  0  0  0  0  0  0  0  0  0  0  0
   -6.5781    0.7124    3.4605 H   0  0  0  0  0  0  0  0  0  0  0  0
   -9.0183    0.2133    3.3236 H   0  0  0  0  0  0  0  0  0  0  0  0
   -9.9253   -0.9675    1.3214 H   0  0  0  0  0  0  0  0  0  0  0  0
   -8.4033   -1.6422   -0.5231 H   0  0  0  0  0  0  0  0  0  0  0  0
  1  2  1  0
  1  5  2  0
  1 35  1  0
  2  3  1  0
  2  9  1  0
  3  4  2  0
  3 36  1  0
  4  5  1  0
  5  6  1  0
  6  7  2  0
  6  8  1  0
  8 37  1  0
  8 38  1  0
  9 10  1  6
  9 11  1  0
  9 13  1  0
 11 12  1  0
 11 39  1  0
 11 40  1  0
 12 41  1  0
 13 14  1  0
 13 42  1  0
 13 43  1  0
 14 15  1  0
 14 44  1  0
 14 45  1  0
 15 16  1  0
 15 19  1  0
 16 17  2  0
 16 46  1  0
 17 18  1  0
 17 47  1  0
 18 19  2  0
 18 23  1  0
 19 20  1  0
 20 21  2  0
 20 48  1  0
 21 22  1  0
 21 24  1  0
 22 23  2  0
 22 49  1  0
 23 50  1  0
 24 25  1  0
 24 51  1  0
 25 26  2  0
 25 27  1  0
 27 28  1  0
 27 52  1  0
 27 53  1  0
 28 29  1  0
 28 54  1  0
 28 55  1  0
 29 30  2  0
 29 34  1  0
 30 31  1  0
 30 56  1  0
 31 32  2  0
 31 57  1  0
 32 33  1  0
 32 58  1  0
 33 34  2  0
 33 59  1  0
 34 60  1  0
M  END

