60
rmsd155.gzmat
C          0.00000        0.00000        0.00000
N          1.38870        0.00000        0.00000
C          1.81660        0.00000        1.33500
N          0.75740        0.02020        2.15220
C         -0.37870        0.01710        1.34440
C         -1.75000        0.01620        1.87020
O         -2.72990       -0.02490        1.14710
N         -1.89520        0.05930        3.23970
C          2.22380       -0.10390       -1.19480
H          1.62190        0.28930       -2.06700
C          3.47770        0.78280       -1.05270
O          4.32710        0.12630       -0.12630
C          2.57910       -1.58820       -1.42750
C          3.03630       -1.87530       -2.86790
N          2.00410       -1.56780       -3.84590
C          0.81980       -2.30230       -4.01830
C         -0.07010       -1.56910       -4.77910
C          0.54290       -0.30140       -5.05920
C          1.83610       -0.32180       -4.44640
C          2.70860        0.77220       -4.50080
C          2.24070        1.91640       -5.12820
C          0.96590        1.95010       -5.76420
C          0.13230        0.85100       -5.73740
N          2.99870        3.10980       -5.17560
C          4.11980        3.37240       -4.39850
O          4.52670        2.60350       -3.55400
C          4.78650        4.71040       -4.65560
C          5.56910        4.69400       -5.97530
C          4.64950        4.74060       -7.15810
C          3.98180        5.92550       -7.47600
C          3.09550        5.96040       -8.54950
C          2.87190        4.81370       -9.31000
C          3.54740        3.63420       -9.00290
C          4.43790        3.59740       -7.93190
H         -0.60290       -0.00760       -0.88850
H          2.85670       -0.00720        1.62550
H         -1.09730        0.08530        3.84320
H         -2.80270        0.04640        3.65210
H          3.22840        1.78420       -0.65430
H          3.99770        0.89900       -2.02410
H          5.21150        0.54330       -0.12820
H          1.70270       -2.22230       -1.18000
H          3.37920       -1.89550       -0.71980
H          3.31600       -2.95210       -2.96360
H          3.95700       -1.29160       -3.10730
H          0.71860       -3.28810       -3.60580
H         -1.04170       -1.86820       -5.10740
H          3.70680        0.71100       -4.07670
H          0.64950        2.85790       -6.27030
H         -0.84140        0.87390       -6.22490
H          2.71640        3.79540       -5.87500
H          5.47920        4.92070       -3.81020
H          4.04630        5.53370       -4.64280
H          6.22720        3.79930       -6.01130
H          6.26780        5.55810       -6.00290
H          4.15720        6.82460       -6.88910
H          2.57980        6.88670       -8.79680
H          2.17480        4.84070      -10.14520
H          3.37930        2.73830       -9.59950
H          4.96100        2.67140       -7.69590
