39
rmsd16.gzmat
O          0.00000        0.00000        0.00000
C          1.19740        0.00000        0.00000
N          2.00410        0.00000        1.17550
C          1.49330        0.07520        2.50370
C          1.54730       -1.17680        3.41500
H          1.75860       -0.99250        4.48450
C          0.23040       -0.69220        2.87190
C          2.19950       -2.40340        2.91120
C          3.59060       -2.50870        3.00470
C          4.23690       -3.64240        2.52190
C          3.49870       -4.67750        1.95000
C          2.11160       -4.57900        1.86920
C          1.46060       -3.44470        2.35000
C          1.70290        1.39910        3.18110
O          1.53770        1.61960        4.35290
O          2.09200        2.34090        2.29180
C          2.35960        3.63070        2.83740
C          3.40110        0.01290        0.87250
O          4.27020        0.04420        1.69440
C          3.47760       -0.02500       -0.61810
C          2.16370       -0.02510       -1.13870
C          1.93060       -0.05020       -2.49280
C          3.05140       -0.07610       -3.34480
C          4.34190       -0.08160       -2.83300
C          4.57500       -0.05710       -1.44450
H         -0.29320       -1.24860        2.09190
H         -0.49380       -0.22730        3.54250
H          4.17000       -1.69310        3.44070
H          5.32030       -3.71770        2.58880
H          4.00530       -5.56120        1.56980
H          1.53390       -5.38870        1.42950
H          0.37660       -3.37560        2.28650
H          1.45400        4.04550        3.29140
H          2.66690        4.20500        1.95590
H          3.16690        3.56880        3.57490
H          0.91780       -0.05010       -2.89580
H          2.89450       -0.09290       -4.42330
H          5.19470       -0.10500       -3.51130
H          5.58870       -0.06250       -1.04390
