39
rmsd37.gzmat
O          0.00000        0.00000        0.00000
C          1.19740        0.00000        0.00000
N          2.00410        0.00000        1.17600
C          1.49710        0.05910        2.50620
C          1.50650       -1.21390        3.38930
H          1.73030       -1.06060        4.46150
C          0.20710       -0.66790        2.86210
C          2.09980       -2.45990        2.86140
C          3.48950       -2.61010        2.89110
C          4.07390       -3.77350        2.39920
C          3.27500       -4.79310        1.88300
C          1.88960       -4.64680        1.86040
C          1.30050       -3.48280        2.35000
C          1.75160        1.35620        3.21970
O          1.60290        1.54320        4.40000
O          2.15480        2.31680        2.35730
C          2.45890        3.58000        2.94650
C          3.40070        0.00970        0.87230
O          4.27110        0.03000        1.69330
C          3.47710       -0.01790       -0.61820
C          2.16320       -0.02130       -1.13930
C          1.93230       -0.04540       -2.49400
C          3.05450       -0.06280       -3.34500
C          4.34450       -0.06020       -2.83230
C          4.57570       -0.03960       -1.44310
H         -0.33920       -1.18880        2.07300
H         -0.49680       -0.18930        3.54460
H          4.11590       -1.80910        3.28870
H          5.15590       -3.88670        2.41830
H          3.73190       -5.70330        1.50240
H          1.26530       -5.44350        1.46160
H          0.21740       -3.37780        2.33480
H          1.57220        3.99220        3.43930
H          2.75500        4.18420        2.08170
H          3.28240        3.47380        3.66130
H          0.92070       -0.05240       -2.90000
H          2.89900       -0.08000       -4.42390
H          5.19900       -0.07390       -3.50860
H          5.58880       -0.04020       -1.04110
