rmsd81.gzmat
 OpenBabel08211713413D

 39 42  0  0  1  0  0  0  0  0999 V2000
    0.0000    0.0000    0.0000 O   0  0  0  0  0  0  0  0  0  0  0  0
    1.1972    0.0000    0.0000 C   0  0  0  0  0  0  0  0  0  0  0  0
    2.0050    0.0000    1.1758 N   0  0  0  0  0  0  0  0  0  0  0  0
    1.5047    0.1511    2.5015 C   0  0  2  0  0  0  0  0  0  0  0  0
    1.4732   -1.0626    3.4614 C   0  0  1  0  0  0  0  0  0  0  0  0
    1.7161   -0.8497    4.5194 H   0  0  0  0  0  0  0  0  0  0  0  0
    0.1907   -0.5016    2.9077 C   0  0  0  0  0  0  0  0  0  0  0  0
    1.9978   -2.3701    3.0154 C   0  0  0  0  0  0  0  0  0  0  0  0
    3.3799   -2.5771    2.9894 C   0  0  0  0  0  0  0  0  0  0  0  0
    3.8908   -3.8028    2.5720 C   0  0  0  0  0  0  0  0  0  0  0  0
    3.0268   -4.8272    2.1867 C   0  0  0  0  0  0  0  0  0  0  0  0
    1.6488   -4.6248    2.2246 C   0  0  0  0  0  0  0  0  0  0  0  0
    1.1330   -3.3990    2.6399 C   0  0  0  0  0  0  0  0  0  0  0  0
    1.8030    1.4840    3.1298 C   0  0  0  0  0  0  0  0  0  0  0  0
    1.7321    1.7383    4.3038 O   0  0  0  0  0  0  0  0  0  0  0  0
    2.1422    2.3934    2.1874 O   0  0  0  0  0  0  0  0  0  0  0  0
    2.4634    3.6949    2.6727 C   0  0  0  0  0  0  0  0  0  0  0  0
    3.4015    0.0060    0.8692 C   0  0  0  0  0  0  0  0  0  0  0  0
    4.2719    0.0305    1.6905 O   0  0  0  0  0  0  0  0  0  0  0  0
    3.4768   -0.0293   -0.6212 C   0  0  0  0  0  0  0  0  0  0  0  0
    2.1621   -0.0267   -1.1401 C   0  0  0  0  0  0  0  0  0  0  0  0
    1.9278   -0.0419   -2.4943 C   0  0  0  0  0  0  0  0  0  0  0  0
    3.0480   -0.0553   -3.3477 C   0  0  0  0  0  0  0  0  0  0  0  0
    4.3392   -0.0647   -2.8377 C   0  0  0  0  0  0  0  0  0  0  0  0
    4.5735   -0.0543   -1.4490 C   0  0  0  0  0  0  0  0  0  0  0  0
   -0.3787   -1.0521    2.1556 H   0  0  0  0  0  0  0  0  0  0  0  0
   -0.4914    0.0435    3.5610 H   0  0  0  0  0  0  0  0  0  0  0  0
    4.0564   -1.7725    3.2854 H   0  0  0  0  0  0  0  0  0  0  0  0
    4.9669   -3.9621    2.5452 H   0  0  0  0  0  0  0  0  0  0  0  0
    3.4270   -5.7835    1.8582 H   0  0  0  0  0  0  0  0  0  0  0  0
    0.9735   -5.4246    1.9288 H   0  0  0  0  0  0  0  0  0  0  0  0
    0.0557   -3.2481    2.6718 H   0  0  0  0  0  0  0  0  0  0  0  0
    2.7522    4.2265    1.7585 H   0  0  0  0  0  0  0  0  0  0  0  0
    3.2947    3.6420    3.3841 H   0  0  0  0  0  0  0  0  0  0  0  0
    1.5839    4.1483    3.1415 H   0  0  0  0  0  0  0  0  0  0  0  0
    0.9146   -0.0422   -2.8962 H   0  0  0  0  0  0  0  0  0  0  0  0
    2.8904   -0.0582   -4.4262 H   0  0  0  0  0  0  0  0  0  0  0  0
    5.1912   -0.0807   -3.5176 H   0  0  0  0  0  0  0  0  0  0  0  0
    5.5876   -0.0641   -1.0496 H   0  0  0  0  0  0  0  0  0  0  0  0
  2  1  2  0  0  0  0
  2  3  1  0  0  0  0
  3  4  1  0  0  0  0
  4  7  1  0  0  0  0
  4 14  1  1  0  0  0
  4  5  1  0  0  0  0
  5  6  1  1  0  0  0
  7  5  1  0  0  0  0
  7 27  1  0  0  0  0
  8  5  1  0  0  0  0
  9  8  1  0  0  0  0
  9 28  1  0  0  0  0
 10  9  2  0  0  0  0
 11 12  2  0  0  0  0
 11 10  1  0  0  0  0
 12 13  1  0  0  0  0
 13 32  1  0  0  0  0
 13  8  2  0  0  0  0
 14 15  2  0  0  0  0
 16 17  1  0  0  0  0
 16 14  1  0  0  0  0
 17 35  1  0  0  0  0
 17 34  1  0  0  0  0
 18  3  1  0  0  0  0
 18 19  2  0  0  0  0
 20 18  1  0  0  0  0
 21 20  1  0  0  0  0
 21  2  1  0  0  0  0
 22 21  2  0  0  0  0
 23 24  2  0  0  0  0
 23 22  1  0  0  0  0
 24 25  1  0  0  0  0
 25 39  1  0  0  0  0
 25 20  2  0  0  0  0
 26  7  1  0  0  0  0
 29 10  1  0  0  0  0
 30 11  1  0  0  0  0
 31 12  1  0  0  0  0
 33 17  1  0  0  0  0
 36 22  1  0  0  0  0
 37 23  1  0  0  0  0
 38 24  1  0  0  0  0
M  END
$$$$
