39
rmsd81.gzmat
O          0.00000        0.00000        0.00000
C          1.19720        0.00000        0.00000
N          2.00500        0.00000        1.17580
C          1.50470        0.15110        2.50150
C          1.47320       -1.06260        3.46140
H          1.71610       -0.84970        4.51940
C          0.19070       -0.50160        2.90770
C          1.99780       -2.37010        3.01540
C          3.37990       -2.57710        2.98940
C          3.89080       -3.80280        2.57200
C          3.02680       -4.82720        2.18670
C          1.64880       -4.62480        2.22460
C          1.13300       -3.39900        2.63990
C          1.80300        1.48400        3.12980
O          1.73210        1.73830        4.30380
O          2.14220        2.39340        2.18740
C          2.46340        3.69490        2.67270
C          3.40150        0.00600        0.86920
O          4.27190        0.03050        1.69050
C          3.47680       -0.02930       -0.62120
C          2.16210       -0.02670       -1.14010
C          1.92780       -0.04190       -2.49430
C          3.04800       -0.05530       -3.34770
C          4.33920       -0.06470       -2.83770
C          4.57350       -0.05430       -1.44900
H         -0.37870       -1.05210        2.15560
H         -0.49140        0.04350        3.56100
H          4.05640       -1.77250        3.28540
H          4.96690       -3.96210        2.54520
H          3.42700       -5.78350        1.85820
H          0.97350       -5.42460        1.92880
H          0.05570       -3.24810        2.67180
H          2.75220        4.22650        1.75850
H          3.29470        3.64200        3.38410
H          1.58390        4.14830        3.14150
H          0.91460       -0.04220       -2.89620
H          2.89040       -0.05820       -4.42620
H          5.19120       -0.08070       -3.51760
H          5.58760       -0.06410       -1.04960
