rmsd37.gzmat
 OpenBabel08211713413D

 39 42  0  0  1  0  0  0  0  0999 V2000
    0.0000    0.0000    0.0000 O   0  0  0  0  0  0  0  0  0  0  0  0
    1.1974    0.0000    0.0000 C   0  0  0  0  0  0  0  0  0  0  0  0
    2.0041    0.0000    1.1760 N   0  0  0  0  0  0  0  0  0  0  0  0
    1.4971    0.0591    2.5062 C   0  0  2  0  0  0  0  0  0  0  0  0
    1.5065   -1.2139    3.3893 C   0  0  1  0  0  0  0  0  0  0  0  0
    1.7303   -1.0606    4.4615 H   0  0  0  0  0  0  0  0  0  0  0  0
    0.2071   -0.6679    2.8621 C   0  0  0  0  0  0  0  0  0  0  0  0
    2.0998   -2.4599    2.8614 C   0  0  0  0  0  0  0  0  0  0  0  0
    3.4895   -2.6101    2.8911 C   0  0  0  0  0  0  0  0  0  0  0  0
    4.0739   -3.7735    2.3992 C   0  0  0  0  0  0  0  0  0  0  0  0
    3.2750   -4.7931    1.8830 C   0  0  0  0  0  0  0  0  0  0  0  0
    1.8896   -4.6468    1.8604 C   0  0  0  0  0  0  0  0  0  0  0  0
    1.3005   -3.4828    2.3500 C   0  0  0  0  0  0  0  0  0  0  0  0
    1.7516    1.3562    3.2197 C   0  0  0  0  0  0  0  0  0  0  0  0
    1.6029    1.5432    4.4000 O   0  0  0  0  0  0  0  0  0  0  0  0
    2.1548    2.3168    2.3573 O   0  0  0  0  0  0  0  0  0  0  0  0
    2.4589    3.5800    2.9465 C   0  0  0  0  0  0  0  0  0  0  0  0
    3.4007    0.0097    0.8723 C   0  0  0  0  0  0  0  0  0  0  0  0
    4.2711    0.0300    1.6933 O   0  0  0  0  0  0  0  0  0  0  0  0
    3.4771   -0.0179   -0.6182 C   0  0  0  0  0  0  0  0  0  0  0  0
    2.1632   -0.0213   -1.1393 C   0  0  0  0  0  0  0  0  0  0  0  0
    1.9323   -0.0454   -2.4940 C   0  0  0  0  0  0  0  0  0  0  0  0
    3.0545   -0.0628   -3.3450 C   0  0  0  0  0  0  0  0  0  0  0  0
    4.3445   -0.0602   -2.8323 C   0  0  0  0  0  0  0  0  0  0  0  0
    4.5757   -0.0396   -1.4431 C   0  0  0  0  0  0  0  0  0  0  0  0
   -0.3392   -1.1888    2.0730 H   0  0  0  0  0  0  0  0  0  0  0  0
   -0.4968   -0.1893    3.5446 H   0  0  0  0  0  0  0  0  0  0  0  0
    4.1159   -1.8091    3.2887 H   0  0  0  0  0  0  0  0  0  0  0  0
    5.1559   -3.8867    2.4183 H   0  0  0  0  0  0  0  0  0  0  0  0
    3.7319   -5.7033    1.5024 H   0  0  0  0  0  0  0  0  0  0  0  0
    1.2653   -5.4435    1.4616 H   0  0  0  0  0  0  0  0  0  0  0  0
    0.2174   -3.3778    2.3348 H   0  0  0  0  0  0  0  0  0  0  0  0
    1.5722    3.9922    3.4393 H   0  0  0  0  0  0  0  0  0  0  0  0
    2.7550    4.1842    2.0817 H   0  0  0  0  0  0  0  0  0  0  0  0
    3.2824    3.4738    3.6613 H   0  0  0  0  0  0  0  0  0  0  0  0
    0.9207   -0.0524   -2.9000 H   0  0  0  0  0  0  0  0  0  0  0  0
    2.8990   -0.0800   -4.4239 H   0  0  0  0  0  0  0  0  0  0  0  0
    5.1990   -0.0739   -3.5086 H   0  0  0  0  0  0  0  0  0  0  0  0
    5.5888   -0.0402   -1.0411 H   0  0  0  0  0  0  0  0  0  0  0  0
  2  1  2  0  0  0  0
  2  3  1  0  0  0  0
  3  4  1  0  0  0  0
  4  7  1  0  0  0  0
  4 14  1  1  0  0  0
  4  5  1  0  0  0  0
  5  6  1  1  0  0  0
  7  5  1  0  0  0  0
  7 27  1  0  0  0  0
  8  9  1  0  0  0  0
  8  5  1  0  0  0  0
  9 28  1  0  0  0  0
 10 29  1  0  0  0  0
 10  9  2  0  0  0  0
 11 10  1  0  0  0  0
 12 11  2  0  0  0  0
 12 13  1  0  0  0  0
 13  8  2  0  0  0  0
 14 15  2  0  0  0  0
 16 17  1  0  0  0  0
 16 14  1  0  0  0  0
 17 33  1  0  0  0  0
 17 35  1  0  0  0  0
 18  3  1  0  0  0  0
 18 19  2  0  0  0  0
 20 18  1  0  0  0  0
 21 20  1  0  0  0  0
 21  2  1  0  0  0  0
 22 21  2  0  0  0  0
 23 24  2  0  0  0  0
 23 22  1  0  0  0  0
 24 25  1  0  0  0  0
 25 39  1  0  0  0  0
 25 20  2  0  0  0  0
 26  7  1  0  0  0  0
 30 11  1  0  0  0  0
 31 12  1  0  0  0  0
 32 13  1  0  0  0  0
 34 17  1  0  0  0  0
 36 22  1  0  0  0  0
 37 23  1  0  0  0  0
 38 24  1  0  0  0  0
M  END
$$$$
