39
rmsd20.gzmat
O          0.00000        0.00000        0.00000
C          1.19680        0.00000        0.00000
N          2.00300        0.00000        1.18060
C          1.45620       -0.04190        2.49590
C          0.89620        1.25210        3.13760
H         -0.00850        1.13460        3.76250
C          2.17970        0.65060        3.64270
C          0.88260        2.50420        2.35320
C         -0.10540        2.68140        1.38020
C         -0.13230        3.84710        0.62080
C          0.81880        4.84400        0.83610
C          1.79500        4.67340        1.81530
C          1.82790        3.50580        2.57530
C          0.72610       -1.31240        2.82830
O         -0.00880       -1.47160        3.76830
O          1.01880       -2.28490        1.93510
C          0.33400       -3.52130        2.12430
C          3.39650       -0.03760        0.88030
O          4.26690       -0.06450        1.70210
C          3.47740       -0.01610       -0.61090
C          2.16520        0.00630       -1.13590
C          1.93650        0.03420       -2.49080
C          3.06050        0.03830       -3.33940
C          4.34940        0.01750       -2.82390
C          4.57770       -0.00990       -1.43440
H          3.13800        1.13600        3.44520
H          2.20580        0.16680        4.61960
H         -0.84820        1.89930        1.20920
H         -0.89740        3.97950       -0.14160
H          0.79650        5.75410        0.24180
H          2.53460        5.45240        1.98710
H          2.59100        3.37940        3.34060
H          0.55370       -3.93440        3.11430
H          0.74760       -4.14980        1.32690
H         -0.74440       -3.37330        1.99940
H          0.92540        0.05430       -2.89700
H          2.90730        0.05940       -4.41850
H          5.20500        0.02320       -3.49920
H          5.59000       -0.02550       -1.03050
