rmsd90.gzmat
 OpenBabel08211713413D

 39 42  0  0  1  0  0  0  0  0999 V2000
    0.0000    0.0000    0.0000 O   0  0  0  0  0  0  0  0  0  0  0  0
    1.1968    0.0000    0.0000 C   0  0  0  0  0  0  0  0  0  0  0  0
    2.0022    0.0000    1.1816 N   0  0  0  0  0  0  0  0  0  0  0  0
    1.4495   -0.0399    2.4943 C   0  0  2  0  0  0  0  0  0  0  0  0
    0.8935    1.2559    3.1367 C   0  0  1  0  0  0  0  0  0  0  0  0
   -0.0195    1.1413    3.7500 H   0  0  0  0  0  0  0  0  0  0  0  0
    2.1667    0.6410    3.6517 C   0  0  0  0  0  0  0  0  0  0  0  0
    0.8977    2.5126    2.3598 C   0  0  0  0  0  0  0  0  0  0  0  0
   -0.0817    2.7052    1.3811 C   0  0  0  0  0  0  0  0  0  0  0  0
   -0.0894    3.8742    0.6259 C   0  0  0  0  0  0  0  0  0  0  0  0
    0.8709    4.8594    0.8525 C   0  0  0  0  0  0  0  0  0  0  0  0
    1.8362    4.6756    1.8404 C   0  0  0  0  0  0  0  0  0  0  0  0
    1.8521    3.5036    2.5939 C   0  0  0  0  0  0  0  0  0  0  0  0
    0.7020   -1.3017    2.8218 C   0  0  0  0  0  0  0  0  0  0  0  0
   -0.0290   -1.4535    3.7665 O   0  0  0  0  0  0  0  0  0  0  0  0
    0.9710   -2.2741    1.9211 O   0  0  0  0  0  0  0  0  0  0  0  0
    0.2550   -3.4943    2.1034 C   0  0  0  0  0  0  0  0  0  0  0  0
    3.3959   -0.0226    0.8816 C   0  0  0  0  0  0  0  0  0  0  0  0
    4.2675   -0.0330    1.7026 O   0  0  0  0  0  0  0  0  0  0  0  0
    3.4776   -0.0077   -0.6099 C   0  0  0  0  0  0  0  0  0  0  0  0
    2.1658    0.0089   -1.1356 C   0  0  0  0  0  0  0  0  0  0  0  0
    1.9383    0.0324   -2.4906 C   0  0  0  0  0  0  0  0  0  0  0  0
    3.0627    0.0354   -3.3387 C   0  0  0  0  0  0  0  0  0  0  0  0
    4.3512    0.0183   -2.8226 C   0  0  0  0  0  0  0  0  0  0  0  0
    4.5784   -0.0016   -1.4329 C   0  0  0  0  0  0  0  0  0  0  0  0
    3.1311    1.1196    3.4678 H   0  0  0  0  0  0  0  0  0  0  0  0
    2.1778    0.1514    4.6265 H   0  0  0  0  0  0  0  0  0  0  0  0
   -0.8336    1.9335    1.2045 H   0  0  0  0  0  0  0  0  0  0  0  0
   -0.8467    4.0170   -0.1425 H   0  0  0  0  0  0  0  0  0  0  0  0
    0.8646    5.7714    0.2605 H   0  0  0  0  0  0  0  0  0  0  0  0
    2.5804    5.4477    2.0240 H   0  0  0  0  0  0  0  0  0  0  0  0
    2.6073    3.3647    3.3651 H   0  0  0  0  0  0  0  0  0  0  0  0
    0.4775   -3.9254    3.0852 H   0  0  0  0  0  0  0  0  0  0  0  0
    0.6385   -4.1223    1.2910 H   0  0  0  0  0  0  0  0  0  0  0  0
   -0.8207   -3.3163    1.9968 H   0  0  0  0  0  0  0  0  0  0  0  0
    0.9273    0.0480   -2.8980 H   0  0  0  0  0  0  0  0  0  0  0  0
    2.9098    0.0522   -4.4179 H   0  0  0  0  0  0  0  0  0  0  0  0
    5.2073    0.0226   -3.4976 H   0  0  0  0  0  0  0  0  0  0  0  0
    5.5908   -0.0105   -1.0289 H   0  0  0  0  0  0  0  0  0  0  0  0
  2  1  2  0  0  0  0
  2  3  1  0  0  0  0
  3  4  1  0  0  0  0
  4 14  1  1  0  0  0
  4  5  1  0  0  0  0
  4  7  1  0  0  0  0
  5  7  1  0  0  0  0
  5  6  1  1  0  0  0
  7 27  1  0  0  0  0
  8 13  1  0  0  0  0
  8  5  1  0  0  0  0
  9  8  2  0  0  0  0
 10 11  2  0  0  0  0
 10  9  1  0  0  0  0
 11 12  1  0  0  0  0
 12 31  1  0  0  0  0
 12 13  2  0  0  0  0
 13 32  1  0  0  0  0
 14 15  2  0  0  0  0
 16 17  1  0  0  0  0
 16 14  1  0  0  0  0
 17 33  1  0  0  0  0
 18  3  1  0  0  0  0
 18 19  2  0  0  0  0
 20 18  1  0  0  0  0
 21 20  1  0  0  0  0
 21  2  1  0  0  0  0
 22 21  2  0  0  0  0
 23 24  2  0  0  0  0
 23 22  1  0  0  0  0
 24 25  1  0  0  0  0
 25 39  1  0  0  0  0
 25 20  2  0  0  0  0
 26  7  1  0  0  0  0
 28  9  1  0  0  0  0
 29 10  1  0  0  0  0
 30 11  1  0  0  0  0
 34 17  1  0  0  0  0
 35 17  1  0  0  0  0
 36 22  1  0  0  0  0
 37 23  1  0  0  0  0
 38 24  1  0  0  0  0
M  END
$$$$
