rmsd16.gzmat
 OpenBabel08211713413D

 39 42  0  0  1  0  0  0  0  0999 V2000
    0.0000    0.0000    0.0000 O   0  0  0  0  0  0  0  0  0  0  0  0
    1.1974    0.0000    0.0000 C   0  0  0  0  0  0  0  0  0  0  0  0
    2.0041    0.0000    1.1755 N   0  0  0  0  0  0  0  0  0  0  0  0
    1.4933    0.0752    2.5037 C   0  0  2  0  0  0  0  0  0  0  0  0
    1.5473   -1.1768    3.4150 C   0  0  1  0  0  0  0  0  0  0  0  0
    1.7586   -0.9925    4.4845 H   0  0  0  0  0  0  0  0  0  0  0  0
    0.2304   -0.6922    2.8719 C   0  0  0  0  0  0  0  0  0  0  0  0
    2.1995   -2.4034    2.9112 C   0  0  0  0  0  0  0  0  0  0  0  0
    3.5906   -2.5087    3.0047 C   0  0  0  0  0  0  0  0  0  0  0  0
    4.2369   -3.6424    2.5219 C   0  0  0  0  0  0  0  0  0  0  0  0
    3.4987   -4.6775    1.9500 C   0  0  0  0  0  0  0  0  0  0  0  0
    2.1116   -4.5790    1.8692 C   0  0  0  0  0  0  0  0  0  0  0  0
    1.4606   -3.4447    2.3500 C   0  0  0  0  0  0  0  0  0  0  0  0
    1.7029    1.3991    3.1811 C   0  0  0  0  0  0  0  0  0  0  0  0
    1.5377    1.6196    4.3529 O   0  0  0  0  0  0  0  0  0  0  0  0
    2.0920    2.3409    2.2918 O   0  0  0  0  0  0  0  0  0  0  0  0
    2.3596    3.6307    2.8374 C   0  0  0  0  0  0  0  0  0  0  0  0
    3.4011    0.0129    0.8725 C   0  0  0  0  0  0  0  0  0  0  0  0
    4.2702    0.0442    1.6944 O   0  0  0  0  0  0  0  0  0  0  0  0
    3.4776   -0.0250   -0.6181 C   0  0  0  0  0  0  0  0  0  0  0  0
    2.1637   -0.0251   -1.1387 C   0  0  0  0  0  0  0  0  0  0  0  0
    1.9306   -0.0502   -2.4928 C   0  0  0  0  0  0  0  0  0  0  0  0
    3.0514   -0.0761   -3.3448 C   0  0  0  0  0  0  0  0  0  0  0  0
    4.3419   -0.0816   -2.8330 C   0  0  0  0  0  0  0  0  0  0  0  0
    4.5750   -0.0571   -1.4445 C   0  0  0  0  0  0  0  0  0  0  0  0
   -0.2932   -1.2486    2.0919 H   0  0  0  0  0  0  0  0  0  0  0  0
   -0.4938   -0.2273    3.5425 H   0  0  0  0  0  0  0  0  0  0  0  0
    4.1700   -1.6931    3.4407 H   0  0  0  0  0  0  0  0  0  0  0  0
    5.3203   -3.7177    2.5888 H   0  0  0  0  0  0  0  0  0  0  0  0
    4.0053   -5.5612    1.5698 H   0  0  0  0  0  0  0  0  0  0  0  0
    1.5339   -5.3887    1.4295 H   0  0  0  0  0  0  0  0  0  0  0  0
    0.3766   -3.3756    2.2865 H   0  0  0  0  0  0  0  0  0  0  0  0
    1.4540    4.0455    3.2914 H   0  0  0  0  0  0  0  0  0  0  0  0
    2.6669    4.2050    1.9559 H   0  0  0  0  0  0  0  0  0  0  0  0
    3.1669    3.5688    3.5749 H   0  0  0  0  0  0  0  0  0  0  0  0
    0.9178   -0.0501   -2.8958 H   0  0  0  0  0  0  0  0  0  0  0  0
    2.8945   -0.0929   -4.4233 H   0  0  0  0  0  0  0  0  0  0  0  0
    5.1947   -0.1050   -3.5113 H   0  0  0  0  0  0  0  0  0  0  0  0
    5.5887   -0.0625   -1.0439 H   0  0  0  0  0  0  0  0  0  0  0  0
  2  1  2  0  0  0  0
  2  3  1  0  0  0  0
  3  4  1  0  0  0  0
  4  7  1  0  0  0  0
  4 14  1  1  0  0  0
  4  5  1  0  0  0  0
  5  6  1  1  0  0  0
  7  5  1  0  0  0  0
  7 27  1  0  0  0  0
  8  9  1  0  0  0  0
  8  5  1  0  0  0  0
  9 28  1  0  0  0  0
 10 29  1  0  0  0  0
 10  9  2  0  0  0  0
 11 10  1  0  0  0  0
 12 11  2  0  0  0  0
 12 13  1  0  0  0  0
 13  8  2  0  0  0  0
 14 15  2  0  0  0  0
 16 17  1  0  0  0  0
 16 14  1  0  0  0  0
 17 33  1  0  0  0  0
 17 35  1  0  0  0  0
 18  3  1  0  0  0  0
 18 19  2  0  0  0  0
 20 18  1  0  0  0  0
 21 20  1  0  0  0  0
 21  2  1  0  0  0  0
 22 21  2  0  0  0  0
 23 24  2  0  0  0  0
 23 22  1  0  0  0  0
 24 25  1  0  0  0  0
 25 39  1  0  0  0  0
 25 20  2  0  0  0  0
 26  7  1  0  0  0  0
 30 11  1  0  0  0  0
 31 12  1  0  0  0  0
 32 13  1  0  0  0  0
 34 17  1  0  0  0  0
 36 22  1  0  0  0  0
 37 23  1  0  0  0  0
 38 24  1  0  0  0  0
M  END
$$$$
