45
rmsd73.gzmat
O          0.00000        0.00000        0.00000
C          1.34020        0.00000        0.00000
C          2.14800        0.00000        1.15360
C          1.61350        0.00850        2.50850
N          2.47570        0.00780        3.57630
N          2.03510       -0.00650        4.78250
C          0.69000        0.00070        5.05320
N          0.28130        0.10410        6.38680
C         -0.77540       -0.78250        6.80190
C         -0.83360       -2.11550        6.38120
C         -1.90080       -2.91140        6.78780
C         -2.89380       -2.38640        7.61300
C         -2.81990       -1.06140        8.04120
C         -1.76120       -0.25150        7.64190
C          1.36080        0.21400        7.39110
C         -0.22400        0.03380        3.94950
N          0.26430        0.02450        2.70480
C         -1.68430        0.08930        4.09880
C         -2.27010        1.18830        4.73160
C         -3.65370        1.23780        4.87970
C         -4.44450        0.19300        4.40250
C         -3.85610       -0.89660        3.76210
C         -2.47370       -0.94870        3.60060
C          3.54470       -0.00460        0.97220
C          4.10460       -0.00290       -0.29350
C          3.27990        0.00040       -1.42780
C          1.90530       -0.00040       -1.29130
H         -0.39280        0.02400        0.92810
H         -0.05380       -2.52670        5.74360
H         -1.95720       -3.94860        6.45890
H         -3.72930       -3.01060        7.92280
H         -3.59820       -0.65460        8.68490
H         -1.70260        0.78800        7.96020
H          2.02490        1.05810        7.12380
H          1.98150       -0.69560        7.45790
H          0.91550        0.42130        8.37780
H         -1.64460        1.99580        5.11220
H         -4.11660        2.09240        5.36870
H         -5.52440        0.22990        4.52930
H         -4.47500       -1.70870        3.38660
H         -2.00930       -1.79260        3.09090
H          4.19580       -0.00840        1.85400
H          5.18430       -0.00260       -0.41190
H          3.72980        0.00400       -2.42050
H          1.24180        0.00150       -2.15260
