45
rmsd85.gzmat
O          0.00000        0.00000        0.00000
C          1.34010        0.00000        0.00000
C          2.14810        0.00000        1.15360
C          1.61350        0.01360        2.50820
N          2.47460        0.06860        3.57550
N          2.03470        0.04670        4.78190
C          0.69120       -0.00890        5.05290
N          0.27930        0.07610        6.38710
C         -0.72940       -0.86160        6.80610
C         -0.75650       -2.17910        6.33510
C         -1.78030       -3.02850        6.74530
C         -2.76180       -2.57220        7.62320
C         -2.72100       -1.26180        8.09840
C         -1.70560       -0.39890        7.69740
C          1.35240        0.25020        7.38940
C         -0.22460       -0.02250        3.94960
N          0.26450       -0.02340        2.70500
C         -1.68570       -0.02630        4.09820
C         -2.30980        1.01350        4.79180
C         -3.69330        1.00270        4.94750
C         -4.44760       -0.04090        4.41230
C         -3.82310       -1.06750        3.70580
C         -2.44010       -1.06070        3.54010
C          3.54490       -0.01150        0.97270
C          4.10520       -0.01710       -0.29290
C          3.28060       -0.00810       -1.42720
C          1.90580       -0.00030       -1.29130
H         -0.39300        0.00830        0.92840
H          0.01300       -2.53830        5.65480
H         -1.81200       -4.05330        6.37620
H         -3.56220       -3.23850        7.93790
H         -3.49160       -0.90770        8.78170
H         -1.67590        0.62910        8.05500
H          1.98870        1.10970        7.10350
H          2.00560       -0.63440        7.48000
H          0.89640        0.46610        8.36950
H         -1.71280        1.82200        5.21440
H         -4.18290        1.80830        5.49020
H         -5.52760       -0.05210        4.54400
H         -4.41550       -1.87620        3.28250
H         -1.94820       -1.85640        2.98070
H          4.19510       -0.01560        1.85520
H          5.18500       -0.02720       -0.41140
H          3.73110       -0.00770       -2.41970
H          1.24280        0.00720       -2.15300
