rmsd106.gzmat
 OpenBabel08211713393D

 45 48  0  0  0  0  0  0  0  0999 V2000
    0.0000    0.0000    0.0000 O   0  0  0  0  0  0  0  0  0  0  0  0
    1.3404    0.0000    0.0000 C   0  0  0  0  0  0  0  0  0  0  0  0
    2.1463    0.0000    1.1548 C   0  0  0  0  0  0  0  0  0  0  0  0
    1.6128    0.0047    2.5099 C   0  0  0  0  0  0  0  0  0  0  0  0
    2.4802    0.0563    3.5725 N   0  0  0  0  0  0  0  0  0  0  0  0
    2.0478    0.0248    4.7809 N   0  0  0  0  0  0  0  0  0  0  0  0
    0.7062   -0.0404    5.0593 C   0  0  0  0  0  0  0  0  0  0  0  0
    0.3067    0.0314    6.3986 N   0  0  0  0  0  0  0  0  0  0  0  0
   -0.6884   -0.9172    6.8232 C   0  0  0  0  0  0  0  0  0  0  0  0
   -0.7326   -2.2214    6.3175 C   0  0  0  0  0  0  0  0  0  0  0  0
   -1.7516   -3.0772    6.7261 C   0  0  0  0  0  0  0  0  0  0  0  0
   -2.7093   -2.6423    7.6401 C   0  0  0  0  0  0  0  0  0  0  0  0
   -2.6477   -1.3476    8.1548 C   0  0  0  0  0  0  0  0  0  0  0  0
   -1.6398   -0.4771    7.7523 C   0  0  0  0  0  0  0  0  0  0  0  0
    1.3931    0.2146    7.3853 C   0  0  0  0  0  0  0  0  0  0  0  0
   -0.2165   -0.0517    3.9615 C   0  0  0  0  0  0  0  0  0  0  0  0
    0.2655   -0.0392    2.7135 N   0  0  0  0  0  0  0  0  0  0  0  0
   -1.6760   -0.0717    4.1231 C   0  0  0  0  0  0  0  0  0  0  0  0
   -2.3008    0.9350    4.8636 C   0  0  0  0  0  0  0  0  0  0  0  0
   -3.6815    0.9031    5.0395 C   0  0  0  0  0  0  0  0  0  0  0  0
   -4.4331   -0.1301    4.4810 C   0  0  0  0  0  0  0  0  0  0  0  0
   -3.8089   -1.1227    3.7270 C   0  0  0  0  0  0  0  0  0  0  0  0
   -2.4291   -1.0927    3.5386 C   0  0  0  0  0  0  0  0  0  0  0  0
    3.5434   -0.0035    0.9753 C   0  0  0  0  0  0  0  0  0  0  0  0
    4.1052   -0.0078   -0.2894 C   0  0  0  0  0  0  0  0  0  0  0  0
    3.2824   -0.0052   -1.4248 C   0  0  0  0  0  0  0  0  0  0  0  0
    1.9074   -0.0002   -1.2900 C   0  0  0  0  0  0  0  0  0  0  0  0
   -0.3917    0.0083    0.9286 H   0  0  0  0  0  0  0  0  0  0  0  0
    0.0193   -2.5648    5.6101 H   0  0  0  0  0  0  0  0  0  0  0  0
   -1.7980   -4.0904    6.3281 H   0  0  0  0  0  0  0  0  0  0  0  0
   -3.5063   -3.3132    7.9529 H   0  0  0  0  0  0  0  0  0  0  0  0
   -3.3971   -1.0124    8.8704 H   0  0  0  0  0  0  0  0  0  0  0  0
   -1.5985    0.5407    8.1363 H   0  0  0  0  0  0  0  0  0  0  0  0
    1.9825    1.1119    7.1151 H   0  0  0  0  0  0  0  0  0  0  0  0
    2.0868   -0.6430    7.4264 H   0  0  0  0  0  0  0  0  0  0  0  0
    0.9547    0.3745    8.3834 H   0  0  0  0  0  0  0  0  0  0  0  0
   -1.7059    1.7323    5.3102 H   0  0  0  0  0  0  0  0  0  0  0  0
   -4.1720    1.6830    5.6184 H   0  0  0  0  0  0  0  0  0  0  0  0
   -5.5103   -0.1596    4.6326 H   0  0  0  0  0  0  0  0  0  0  0  0
   -4.3995   -1.9221    3.2833 H   0  0  0  0  0  0  0  0  0  0  0  0
   -1.9383   -1.8602    2.9402 H   0  0  0  0  0  0  0  0  0  0  0  0
    4.1933   -0.0012    1.8581 H   0  0  0  0  0  0  0  0  0  0  0  0
    5.1851   -0.0123   -0.4063 H   0  0  0  0  0  0  0  0  0  0  0  0
    3.7351   -0.0062   -2.4164 H   0  0  0  0  0  0  0  0  0  0  0  0
    1.2456    0.0054   -2.1525 H   0  0  0  0  0  0  0  0  0  0  0  0
  1  2  1  0  0  0  0
  1 28  1  0  0  0  0
  2  3  2  0  0  0  0
  3  4  1  0  0  0  0
  4 17  2  0  0  0  0
  4  5  2  0  0  0  0
  5  6  1  0  0  0  0
  6  7  2  0  0  0  0
  7  8  1  0  0  0  0
  8  9  1  0  0  0  0
  8 15  1  0  0  0  0
  9 14  2  0  0  0  0
 10 11  2  0  0  0  0
 10  9  1  0  0  0  0
 11 12  1  0  0  0  0
 12 31  1  0  0  0  0
 12 13  2  0  0  0  0
 13 32  1  0  0  0  0
 14 33  1  0  0  0  0
 14 13  1  0  0  0  0
 15 35  1  0  0  0  0
 15 36  1  0  0  0  0
 16 18  1  0  0  0  0
 16  7  1  0  0  0  0
 17 16  2  0  0  0  0
 18 19  2  0  0  0  0
 19 20  1  0  0  0  0
 19 37  1  0  0  0  0
 20 38  1  0  0  0  0
 21 39  1  0  0  0  0
 21 20  2  0  0  0  0
 22 21  1  0  0  0  0
 23 22  2  0  0  0  0
 23 18  1  0  0  0  0
 24  3  1  0  0  0  0
 24 42  1  0  0  0  0
 25 24  2  0  0  0  0
 26 27  2  0  0  0  0
 26 25  1  0  0  0  0
 27  2  1  0  0  0  0
 29 10  1  0  0  0  0
 30 11  1  0  0  0  0
 34 15  1  0  0  0  0
 40 22  1  0  0  0  0
 41 23  1  0  0  0  0
 43 25  1  0  0  0  0
 44 26  1  0  0  0  0
 45 27  1  0  0  0  0
M  END
$$$$
