rmsd86.gzmat
 OpenBabel08211713393D

 45 48  0  0  0  0  0  0  0  0999 V2000
    0.0000    0.0000    0.0000 O   0  0  0  0  0  0  0  0  0  0  0  0
    1.3403    0.0000    0.0000 C   0  0  0  0  0  0  0  0  0  0  0  0
    2.1473    0.0000    1.1542 C   0  0  0  0  0  0  0  0  0  0  0  0
    1.6128    0.0110    2.5090 C   0  0  0  0  0  0  0  0  0  0  0  0
    2.4741    0.0845    3.5749 N   0  0  0  0  0  0  0  0  0  0  0  0
    2.0356    0.0757    4.7819 N   0  0  0  0  0  0  0  0  0  0  0  0
    0.6923    0.0125    5.0550 C   0  0  0  0  0  0  0  0  0  0  0  0
    0.2816    0.1302    6.3856 N   0  0  0  0  0  0  0  0  0  0  0  0
   -0.7240   -0.7937    6.8382 C   0  0  0  0  0  0  0  0  0  0  0  0
   -0.7521   -2.1271    6.4156 C   0  0  0  0  0  0  0  0  0  0  0  0
   -1.7766   -2.9598    6.8576 C   0  0  0  0  0  0  0  0  0  0  0  0
   -2.7548   -2.4717    7.7216 C   0  0  0  0  0  0  0  0  0  0  0  0
   -2.7095   -1.1462    8.1528 C   0  0  0  0  0  0  0  0  0  0  0  0
   -1.6960   -0.2990    7.7162 C   0  0  0  0  0  0  0  0  0  0  0  0
    1.3523    0.3513    7.3810 C   0  0  0  0  0  0  0  0  0  0  0  0
   -0.2228   -0.0364    3.9523 C   0  0  0  0  0  0  0  0  0  0  0  0
    0.2647   -0.0448    2.7073 N   0  0  0  0  0  0  0  0  0  0  0  0
   -1.6834   -0.0661    4.1032 C   0  0  0  0  0  0  0  0  0  0  0  0
   -2.3301    0.9973    4.7376 C   0  0  0  0  0  0  0  0  0  0  0  0
   -3.7136    0.9663    4.8908 C   0  0  0  0  0  0  0  0  0  0  0  0
   -4.4445   -0.1209    4.4128 C   0  0  0  0  0  0  0  0  0  0  0  0
   -3.7964   -1.1731    3.7671 C   0  0  0  0  0  0  0  0  0  0  0  0
   -2.4134   -1.1464    3.6038 C   0  0  0  0  0  0  0  0  0  0  0  0
    3.5442   -0.0057    0.9740 C   0  0  0  0  0  0  0  0  0  0  0  0
    4.1051   -0.0077   -0.2912 C   0  0  0  0  0  0  0  0  0  0  0  0
    3.2814   -0.0027   -1.4262 C   0  0  0  0  0  0  0  0  0  0  0  0
    1.9066    0.0014   -1.2910 C   0  0  0  0  0  0  0  0  0  0  0  0
   -0.3923   -0.0032    0.9286 H   0  0  0  0  0  0  0  0  0  0  0  0
    0.0167   -2.5109    5.7480 H   0  0  0  0  0  0  0  0  0  0  0  0
   -1.8108   -3.9969    6.5250 H   0  0  0  0  0  0  0  0  0  0  0  0
   -3.5561   -3.1251    8.0601 H   0  0  0  0  0  0  0  0  0  0  0  0
   -3.4751   -0.7675    8.8280 H   0  0  0  0  0  0  0  0  0  0  0  0
   -1.6640    0.7418    8.0345 H   0  0  0  0  0  0  0  0  0  0  0  0
    1.9459    1.2383    7.0869 H   0  0  0  0  0  0  0  0  0  0  0  0
    2.0436   -0.5049    7.4666 H   0  0  0  0  0  0  0  0  0  0  0  0
    0.8961    0.5486    8.3652 H   0  0  0  0  0  0  0  0  0  0  0  0
   -1.7514    1.8408    5.1143 H   0  0  0  0  0  0  0  0  0  0  0  0
   -4.2218    1.7919    5.3850 H   0  0  0  0  0  0  0  0  0  0  0  0
   -5.5245   -0.1465    4.5428 H   0  0  0  0  0  0  0  0  0  0  0  0
   -4.3695   -2.0164    3.3872 H   0  0  0  0  0  0  0  0  0  0  0  0
   -1.9022   -1.9616    3.0921 H   0  0  0  0  0  0  0  0  0  0  0  0
    4.1936   -0.0066    1.8568 H   0  0  0  0  0  0  0  0  0  0  0  0
    5.1849   -0.0118   -0.4091 H   0  0  0  0  0  0  0  0  0  0  0  0
    3.7334   -0.0019   -2.4180 H   0  0  0  0  0  0  0  0  0  0  0  0
    1.2440    0.0065   -2.1529 H   0  0  0  0  0  0  0  0  0  0  0  0
  1  2  1  0  0  0  0
  1 28  1  0  0  0  0
  2  3  2  0  0  0  0
  3  4  1  0  0  0  0
  4 17  2  0  0  0  0
  4  5  2  0  0  0  0
  5  6  1  0  0  0  0
  6  7  2  0  0  0  0
  7  8  1  0  0  0  0
  8  9  1  0  0  0  0
  8 15  1  0  0  0  0
  9 14  1  0  0  0  0
 10  9  2  0  0  0  0
 10 11  1  0  0  0  0
 11 12  2  0  0  0  0
 12 31  1  0  0  0  0
 12 13  1  0  0  0  0
 13 32  1  0  0  0  0
 14 33  1  0  0  0  0
 14 13  2  0  0  0  0
 15 35  1  0  0  0  0
 15 36  1  0  0  0  0
 16 18  1  0  0  0  0
 16  7  1  0  0  0  0
 17 16  2  0  0  0  0
 18 19  2  0  0  0  0
 19 20  1  0  0  0  0
 19 37  1  0  0  0  0
 20 38  1  0  0  0  0
 21 39  1  0  0  0  0
 21 20  2  0  0  0  0
 22 21  1  0  0  0  0
 23 22  2  0  0  0  0
 23 18  1  0  0  0  0
 24  3  1  0  0  0  0
 24 42  1  0  0  0  0
 25 24  2  0  0  0  0
 26 27  2  0  0  0  0
 26 25  1  0  0  0  0
 27  2  1  0  0  0  0
 29 10  1  0  0  0  0
 30 11  1  0  0  0  0
 34 15  1  0  0  0  0
 40 22  1  0  0  0  0
 41 23  1  0  0  0  0
 43 25  1  0  0  0  0
 44 26  1  0  0  0  0
 45 27  1  0  0  0  0
M  END
$$$$
