45
rmsd65.gzmat
O          0.00000        0.00000        0.00000
C          1.34010        0.00000        0.00000
C          2.14680        0.00000        1.15460
C          1.61180        0.00380        2.50930
N          2.47440        0.02690        3.57650
N          2.03510        0.00740        4.78320
C          0.69040       -0.01600        5.05420
N          0.27980        0.08610        6.38690
C         -0.75820       -0.81820        6.80970
C         -0.80140       -2.14940        6.38140
C         -1.85280       -2.96300        6.79440
C         -2.84660       -2.45660        7.63000
C         -2.78740       -1.13320        8.06610
C         -1.74340       -0.30640        7.66320
C          1.35690        0.22870        7.38950
C         -0.22510       -0.01020        3.95090
N          0.26260       -0.01050        2.70620
C         -1.68590        0.00670        4.10210
C         -2.29720        1.07800        4.75750
C         -3.68120        1.09020        4.90950
C         -4.44770        0.03590        4.41360
C         -3.83390       -1.02650        3.75200
C         -2.45130       -1.04040        3.58500
C          3.54370       -0.00170        0.97520
C          4.10460       -0.00170       -0.29000
C          3.28110        0.00060       -1.42520
C          1.90620        0.00030       -1.29060
H         -0.39250        0.01900        0.92850
H         -0.02470       -2.54550        5.73050
H         -1.89540       -3.99980        6.46180
H         -3.67050       -3.09480        7.94270
H         -3.56360       -0.74130        8.72130
H         -1.69610        0.73130        7.98960
H          2.01290        1.07410        7.10640
H          1.98770       -0.67250        7.47410
H          0.90670        0.45100        8.37080
H         -1.69000        1.89240        5.15300
H         -4.16200        1.92270        5.41860
H         -5.52850        0.04410        4.54140
H         -4.43340       -1.84700        3.36310
H         -1.96760       -1.86140        3.05620
H          4.19400       -0.00190        1.85780
H          5.18460       -0.00290       -0.40760
H          3.73430        0.00340       -2.41640
H          1.24350        0.00260       -2.15270
