rmsd65.gzmat
 OpenBabel08211713393D

 45 48  0  0  0  0  0  0  0  0999 V2000
    0.0000    0.0000    0.0000 O   0  0  0  0  0  0  0  0  0  0  0  0
    1.3401    0.0000    0.0000 C   0  0  0  0  0  0  0  0  0  0  0  0
    2.1468    0.0000    1.1546 C   0  0  0  0  0  0  0  0  0  0  0  0
    1.6118    0.0038    2.5093 C   0  0  0  0  0  0  0  0  0  0  0  0
    2.4744    0.0269    3.5765 N   0  0  0  0  0  0  0  0  0  0  0  0
    2.0351    0.0074    4.7832 N   0  0  0  0  0  0  0  0  0  0  0  0
    0.6904   -0.0160    5.0542 C   0  0  0  0  0  0  0  0  0  0  0  0
    0.2798    0.0861    6.3869 N   0  0  0  0  0  0  0  0  0  0  0  0
   -0.7582   -0.8182    6.8097 C   0  0  0  0  0  0  0  0  0  0  0  0
   -0.8014   -2.1494    6.3814 C   0  0  0  0  0  0  0  0  0  0  0  0
   -1.8528   -2.9630    6.7944 C   0  0  0  0  0  0  0  0  0  0  0  0
   -2.8466   -2.4566    7.6300 C   0  0  0  0  0  0  0  0  0  0  0  0
   -2.7874   -1.1332    8.0661 C   0  0  0  0  0  0  0  0  0  0  0  0
   -1.7434   -0.3064    7.6632 C   0  0  0  0  0  0  0  0  0  0  0  0
    1.3569    0.2287    7.3895 C   0  0  0  0  0  0  0  0  0  0  0  0
   -0.2251   -0.0102    3.9509 C   0  0  0  0  0  0  0  0  0  0  0  0
    0.2626   -0.0105    2.7062 N   0  0  0  0  0  0  0  0  0  0  0  0
   -1.6859    0.0067    4.1021 C   0  0  0  0  0  0  0  0  0  0  0  0
   -2.2972    1.0780    4.7575 C   0  0  0  0  0  0  0  0  0  0  0  0
   -3.6812    1.0902    4.9095 C   0  0  0  0  0  0  0  0  0  0  0  0
   -4.4477    0.0359    4.4136 C   0  0  0  0  0  0  0  0  0  0  0  0
   -3.8339   -1.0265    3.7520 C   0  0  0  0  0  0  0  0  0  0  0  0
   -2.4513   -1.0404    3.5850 C   0  0  0  0  0  0  0  0  0  0  0  0
    3.5437   -0.0017    0.9752 C   0  0  0  0  0  0  0  0  0  0  0  0
    4.1046   -0.0017   -0.2900 C   0  0  0  0  0  0  0  0  0  0  0  0
    3.2811    0.0006   -1.4252 C   0  0  0  0  0  0  0  0  0  0  0  0
    1.9062    0.0003   -1.2906 C   0  0  0  0  0  0  0  0  0  0  0  0
   -0.3925    0.0190    0.9285 H   0  0  0  0  0  0  0  0  0  0  0  0
   -0.0247   -2.5455    5.7305 H   0  0  0  0  0  0  0  0  0  0  0  0
   -1.8954   -3.9998    6.4618 H   0  0  0  0  0  0  0  0  0  0  0  0
   -3.6705   -3.0948    7.9427 H   0  0  0  0  0  0  0  0  0  0  0  0
   -3.5636   -0.7413    8.7213 H   0  0  0  0  0  0  0  0  0  0  0  0
   -1.6961    0.7313    7.9896 H   0  0  0  0  0  0  0  0  0  0  0  0
    2.0129    1.0741    7.1064 H   0  0  0  0  0  0  0  0  0  0  0  0
    1.9877   -0.6725    7.4741 H   0  0  0  0  0  0  0  0  0  0  0  0
    0.9067    0.4510    8.3708 H   0  0  0  0  0  0  0  0  0  0  0  0
   -1.6900    1.8924    5.1530 H   0  0  0  0  0  0  0  0  0  0  0  0
   -4.1620    1.9227    5.4186 H   0  0  0  0  0  0  0  0  0  0  0  0
   -5.5285    0.0441    4.5414 H   0  0  0  0  0  0  0  0  0  0  0  0
   -4.4334   -1.8470    3.3631 H   0  0  0  0  0  0  0  0  0  0  0  0
   -1.9676   -1.8614    3.0562 H   0  0  0  0  0  0  0  0  0  0  0  0
    4.1940   -0.0019    1.8578 H   0  0  0  0  0  0  0  0  0  0  0  0
    5.1846   -0.0029   -0.4076 H   0  0  0  0  0  0  0  0  0  0  0  0
    3.7343    0.0034   -2.4164 H   0  0  0  0  0  0  0  0  0  0  0  0
    1.2435    0.0026   -2.1527 H   0  0  0  0  0  0  0  0  0  0  0  0
  1  2  1  0  0  0  0
  1 28  1  0  0  0  0
  2  3  2  0  0  0  0
  3  4  1  0  0  0  0
  4 17  2  0  0  0  0
  4  5  2  0  0  0  0
  5  6  1  0  0  0  0
  6  7  2  0  0  0  0
  7  8  1  0  0  0  0
  8  9  1  0  0  0  0
  8 15  1  0  0  0  0
  9 14  2  0  0  0  0
 10 11  2  0  0  0  0
 10  9  1  0  0  0  0
 11 12  1  0  0  0  0
 12 31  1  0  0  0  0
 12 13  2  0  0  0  0
 13 32  1  0  0  0  0
 14 33  1  0  0  0  0
 14 13  1  0  0  0  0
 15 35  1  0  0  0  0
 15 36  1  0  0  0  0
 16 18  1  0  0  0  0
 16  7  1  0  0  0  0
 17 16  2  0  0  0  0
 18 19  2  0  0  0  0
 19 20  1  0  0  0  0
 19 37  1  0  0  0  0
 20 38  1  0  0  0  0
 21 39  1  0  0  0  0
 21 20  2  0  0  0  0
 22 21  1  0  0  0  0
 23 22  2  0  0  0  0
 23 18  1  0  0  0  0
 24  3  1  0  0  0  0
 24 42  1  0  0  0  0
 25 24  2  0  0  0  0
 26 27  2  0  0  0  0
 26 25  1  0  0  0  0
 27  2  1  0  0  0  0
 29 10  1  0  0  0  0
 30 11  1  0  0  0  0
 34 15  1  0  0  0  0
 40 22  1  0  0  0  0
 41 23  1  0  0  0  0
 43 25  1  0  0  0  0
 44 26  1  0  0  0  0
 45 27  1  0  0  0  0
M  END
$$$$
