45
rmsd86.gzmat
O          0.00000        0.00000        0.00000
C          1.34030        0.00000        0.00000
C          2.14730        0.00000        1.15420
C          1.61280        0.01100        2.50900
N          2.47410        0.08450        3.57490
N          2.03560        0.07570        4.78190
C          0.69230        0.01250        5.05500
N          0.28160        0.13020        6.38560
C         -0.72400       -0.79370        6.83820
C         -0.75210       -2.12710        6.41560
C         -1.77660       -2.95980        6.85760
C         -2.75480       -2.47170        7.72160
C         -2.70950       -1.14620        8.15280
C         -1.69600       -0.29900        7.71620
C          1.35230        0.35130        7.38100
C         -0.22280       -0.03640        3.95230
N          0.26470       -0.04480        2.70730
C         -1.68340       -0.06610        4.10320
C         -2.33010        0.99730        4.73760
C         -3.71360        0.96630        4.89080
C         -4.44450       -0.12090        4.41280
C         -3.79640       -1.17310        3.76710
C         -2.41340       -1.14640        3.60380
C          3.54420       -0.00570        0.97400
C          4.10510       -0.00770       -0.29120
C          3.28140       -0.00270       -1.42620
C          1.90660        0.00140       -1.29100
H         -0.39230       -0.00320        0.92860
H          0.01670       -2.51090        5.74800
H         -1.81080       -3.99690        6.52500
H         -3.55610       -3.12510        8.06010
H         -3.47510       -0.76750        8.82800
H         -1.66400        0.74180        8.03450
H          1.94590        1.23830        7.08690
H          2.04360       -0.50490        7.46660
H          0.89610        0.54860        8.36520
H         -1.75140        1.84080        5.11430
H         -4.22180        1.79190        5.38500
H         -5.52450       -0.14650        4.54280
H         -4.36950       -2.01640        3.38720
H         -1.90220       -1.96160        3.09210
H          4.19360       -0.00660        1.85680
H          5.18490       -0.01180       -0.40910
H          3.73340       -0.00190       -2.41800
H          1.24400        0.00650       -2.15290
