rmsd16.gzmat
 OpenBabel08211713393D

 45 48  0  0  0  0  0  0  0  0999 V2000
    0.0000    0.0000    0.0000 O   0  0  0  0  0  0  0  0  0  0  0  0
    1.3402    0.0000    0.0000 C   0  0  0  0  0  0  0  0  0  0  0  0
    2.1475    0.0000    1.1543 C   0  0  0  0  0  0  0  0  0  0  0  0
    1.6120    0.0004    2.5089 C   0  0  0  0  0  0  0  0  0  0  0  0
    2.4738   -0.0190    3.5766 N   0  0  0  0  0  0  0  0  0  0  0  0
    2.0327   -0.0488    4.7825 N   0  0  0  0  0  0  0  0  0  0  0  0
    0.6876   -0.0382    5.0525 C   0  0  0  0  0  0  0  0  0  0  0  0
    0.2806    0.0420    6.3877 N   0  0  0  0  0  0  0  0  0  0  0  0
   -0.7884   -0.8350    6.7877 C   0  0  0  0  0  0  0  0  0  0  0  0
   -0.8921   -2.1459    6.3093 C   0  0  0  0  0  0  0  0  0  0  0  0
   -1.9773   -2.9277    6.6958 C   0  0  0  0  0  0  0  0  0  0  0  0
   -2.9417   -2.4125    7.5599 C   0  0  0  0  0  0  0  0  0  0  0  0
   -2.8203   -1.1120    8.0488 C   0  0  0  0  0  0  0  0  0  0  0  0
   -1.7448   -0.3154    7.6686 C   0  0  0  0  0  0  0  0  0  0  0  0
    1.3623    0.1303    7.3915 C   0  0  0  0  0  0  0  0  0  0  0  0
   -0.2261    0.0220    3.9490 C   0  0  0  0  0  0  0  0  0  0  0  0
    0.2626    0.0258    2.7047 N   0  0  0  0  0  0  0  0  0  0  0  0
   -1.6852    0.0969    4.1009 C   0  0  0  0  0  0  0  0  0  0  0  0
   -2.2499    1.1851    4.7707 C   0  0  0  0  0  0  0  0  0  0  0  0
   -3.6320    1.2549    4.9239 C   0  0  0  0  0  0  0  0  0  0  0  0
   -4.4430    0.2420    4.4131 C   0  0  0  0  0  0  0  0  0  0  0  0
   -3.8762   -0.8364    3.7356 C   0  0  0  0  0  0  0  0  0  0  0  0
   -2.4951   -0.9095    3.5706 C   0  0  0  0  0  0  0  0  0  0  0  0
    3.5445    0.0013    0.9741 C   0  0  0  0  0  0  0  0  0  0  0  0
    4.1048    0.0032   -0.2916 C   0  0  0  0  0  0  0  0  0  0  0  0
    3.2807    0.0013   -1.4264 C   0  0  0  0  0  0  0  0  0  0  0  0
    1.9057   -0.0025   -1.2911 C   0  0  0  0  0  0  0  0  0  0  0  0
   -0.3931    0.0327    0.9278 H   0  0  0  0  0  0  0  0  0  0  0  0
   -0.1350   -2.5511    5.6410 H   0  0  0  0  0  0  0  0  0  0  0  0
   -2.0705   -3.9461    6.3195 H   0  0  0  0  0  0  0  0  0  0  0  0
   -3.7916   -3.0253    7.8527 H   0  0  0  0  0  0  0  0  0  0  0  0
   -3.5743   -0.7137    8.7258 H   0  0  0  0  0  0  0  0  0  0  0  0
   -1.6521    0.7067    8.0322 H   0  0  0  0  0  0  0  0  0  0  0  0
    2.0202    0.9850    7.1430 H   0  0  0  0  0  0  0  0  0  0  0  0
    1.9891   -0.7772    7.4307 H   0  0  0  0  0  0  0  0  0  0  0  0
    0.9215    0.3083    8.3858 H   0  0  0  0  0  0  0  0  0  0  0  0
   -1.6085    1.9675    5.1769 H   0  0  0  0  0  0  0  0  0  0  0  0
   -4.0773    2.1009    5.4440 H   0  0  0  0  0  0  0  0  0  0  0  0
   -5.5223    0.2953    4.5419 H   0  0  0  0  0  0  0  0  0  0  0  0
   -4.5112   -1.6228    3.3327 H   0  0  0  0  0  0  0  0  0  0  0  0
   -2.0476   -1.7451    3.0330 H   0  0  0  0  0  0  0  0  0  0  0  0
    4.1953    0.0023    1.8562 H   0  0  0  0  0  0  0  0  0  0  0  0
    5.1845    0.0074   -0.4101 H   0  0  0  0  0  0  0  0  0  0  0  0
    3.7319    0.0047   -2.4185 H   0  0  0  0  0  0  0  0  0  0  0  0
    1.2434   -0.0049   -2.1533 H   0  0  0  0  0  0  0  0  0  0  0  0
  1  2  1  0  0  0  0
  1 28  1  0  0  0  0
  2  3  2  0  0  0  0
  3  4  1  0  0  0  0
  4 17  2  0  0  0  0
  4  5  2  0  0  0  0
  5  6  1  0  0  0  0
  6  7  2  0  0  0  0
  7  8  1  0  0  0  0
  8  9  1  0  0  0  0
  8 15  1  0  0  0  0
  9 14  2  0  0  0  0
 10 11  2  0  0  0  0
 10  9  1  0  0  0  0
 11 12  1  0  0  0  0
 12 31  1  0  0  0  0
 12 13  2  0  0  0  0
 13 32  1  0  0  0  0
 14 33  1  0  0  0  0
 14 13  1  0  0  0  0
 15 35  1  0  0  0  0
 15 36  1  0  0  0  0
 16 18  1  0  0  0  0
 16  7  1  0  0  0  0
 17 16  2  0  0  0  0
 18 19  2  0  0  0  0
 19 20  1  0  0  0  0
 19 37  1  0  0  0  0
 20 38  1  0  0  0  0
 21 39  1  0  0  0  0
 21 20  2  0  0  0  0
 22 21  1  0  0  0  0
 23 22  2  0  0  0  0
 23 18  1  0  0  0  0
 24  3  1  0  0  0  0
 24 42  1  0  0  0  0
 25 24  2  0  0  0  0
 26 27  2  0  0  0  0
 26 25  1  0  0  0  0
 27  2  1  0  0  0  0
 29 10  1  0  0  0  0
 30 11  1  0  0  0  0
 34 15  1  0  0  0  0
 40 22  1  0  0  0  0
 41 23  1  0  0  0  0
 43 25  1  0  0  0  0
 44 26  1  0  0  0  0
 45 27  1  0  0  0  0
M  END
$$$$
