
     RDKit          3D

 44 46  0  0  0  0  0  0  0  0999 V2000
    0.0427    0.3098   -0.1021 C   0  0  0  0  0  0  0  0  0  0  0  0
    1.3895    0.4286   -0.1262 C   0  0  0  0  0  0  0  0  0  0  0  0
    2.1500    0.4057    1.0552 N   0  0  0  0  0  0  0  0  0  0  0  0
    3.2571   -0.3903    1.2489 C   0  0  0  0  0  0  0  0  0  0  0  0
    3.7762   -1.0176    0.3437 O   0  0  0  0  0  0  0  0  0  0  0  0
    3.7679   -0.4375    2.6626 C   0  0  0  0  0  0  0  0  0  0  0  0
    2.9788   -0.1281    3.7830 C   0  0  0  0  0  0  0  0  0  0  0  0
    3.5073   -0.2366    5.0709 C   0  0  0  0  0  0  0  0  0  0  0  0
    4.8289   -0.6527    5.2518 C   0  0  0  0  0  0  0  0  0  0  0  0
    5.6170   -0.9736    4.1409 C   0  0  0  0  0  0  0  0  0  0  0  0
    5.0862   -0.8760    2.8554 C   0  0  0  0  0  0  0  0  0  0  0  0
    2.0725    0.7165   -1.4241 C   0  0  0  0  0  0  0  0  0  0  0  0
    1.6007    0.4594   -2.5061 O   0  0  0  0  0  0  0  0  0  0  0  0
    3.2426    1.3553   -1.2621 O   0  0  0  0  0  0  0  0  0  0  0  0
   -0.7296    0.0312    1.1175 C   0  0  0  0  0  0  0  0  0  0  0  0
   -0.3158   -0.9592    2.0296 C   0  0  0  0  0  0  0  0  0  0  0  0
   -0.9838   -1.1639    3.2328 C   0  0  0  0  0  0  0  0  0  0  0  0
   -2.0823   -0.3588    3.5524 C   0  0  0  0  0  0  0  0  0  0  0  0
   -2.5509    0.5916    2.6399 C   0  0  0  0  0  0  0  0  0  0  0  0
   -1.8849    0.7726    1.4306 C   0  0  0  0  0  0  0  0  0  0  0  0
   -2.7570   -0.4592    4.7433 O   0  0  0  0  0  0  0  0  0  0  0  0
   -2.2025   -1.1605    5.7816 C   0  0  0  0  0  0  0  0  0  0  0  0
   -1.0882   -0.6853    6.4943 C   0  0  0  0  0  0  0  0  0  0  0  0
   -0.5814   -1.4122    7.5741 C   0  0  0  0  0  0  0  0  0  0  0  0
   -1.1866   -2.6131    7.9515 C   0  0  0  0  0  0  0  0  0  0  0  0
   -2.2995   -3.0862    7.2516 C   0  0  0  0  0  0  0  0  0  0  0  0
   -2.8004   -2.3629    6.1685 C   0  0  0  0  0  0  0  0  0  0  0  0
   -0.2718    0.9653    6.0152 Br  0  0  0  0  0  0  0  0  0  0  0  0
   -0.4875    0.4970   -1.0392 H   0  0  0  0  0  0  0  0  0  0  0  0
    1.7073    0.8051    1.8737 H   0  0  0  0  0  0  0  0  0  0  0  0
    1.9327    0.1701    3.6811 H   0  0  0  0  0  0  0  0  0  0  0  0
    2.8755    0.0007    5.9298 H   0  0  0  0  0  0  0  0  0  0  0  0
    5.2439   -0.7337    6.2594 H   0  0  0  0  0  0  0  0  0  0  0  0
    6.6485   -1.3058    4.2800 H   0  0  0  0  0  0  0  0  0  0  0  0
    5.6748   -1.1381    1.9747 H   0  0  0  0  0  0  0  0  0  0  0  0
    3.6222    1.4618   -2.1502 H   0  0  0  0  0  0  0  0  0  0  0  0
    0.5428   -1.5867    1.7874 H   0  0  0  0  0  0  0  0  0  0  0  0
   -0.6416   -1.9326    3.9261 H   0  0  0  0  0  0  0  0  0  0  0  0
   -3.4224    1.1915    2.9065 H   0  0  0  0  0  0  0  0  0  0  0  0
   -2.2425    1.5300    0.7289 H   0  0  0  0  0  0  0  0  0  0  0  0
    0.2823   -1.0282    8.1187 H   0  0  0  0  0  0  0  0  0  0  0  0
   -0.7863   -3.1745    8.7981 H   0  0  0  0  0  0  0  0  0  0  0  0
   -2.7775   -4.0231    7.5450 H   0  0  0  0  0  0  0  0  0  0  0  0
   -3.6646   -2.7093    5.5990 H   0  0  0  0  0  0  0  0  0  0  0  0
  1  2  2  0
  1 15  1  0
  1 29  1  0
  2  3  1  0
  2 12  1  0
  3  4  1  0
  3 30  1  0
  4  5  2  0
  4  6  1  0
  6  7  2  0
  6 11  1  0
  7  8  1  0
  7 31  1  0
  8  9  2  0
  8 32  1  0
  9 10  1  0
  9 33  1  0
 10 11  2  0
 10 34  1  0
 11 35  1  0
 12 13  2  0
 12 14  1  0
 14 36  1  0
 15 16  2  0
 15 20  1  0
 16 17  1  0
 16 37  1  0
 17 18  2  0
 17 38  1  0
 18 19  1  0
 18 21  1  0
 19 20  2  0
 19 39  1  0
 20 40  1  0
 21 22  1  0
 22 23  2  0
 22 27  1  0
 23 24  1  0
 23 28  1  0
 24 25  2  0
 24 41  1  0
 25 26  1  0
 25 42  1  0
 26 27  2  0
 26 43  1  0
 27 44  1  0
M  END

