rmsd218.gzmat
 OpenBabel08211713373D

 44 46  0  0  0  0  0  0  0  0999 V2000
    0.0000    0.0000    0.0000 C   0  0  0  0  0  0  0  0  0  0  0  0
    1.3467    0.0000    0.0000 C   0  0  0  0  0  0  0  0  0  0  0  0
    2.1127    0.0000    1.1755 N   0  0  0  0  0  0  0  0  0  0  0  0
    3.4871   -0.2606    1.1664 C   0  0  0  0  0  0  0  0  0  0  0  0
    4.0536   -0.5249    0.1303 O   0  0  0  0  0  0  0  0  0  0  0  0
    4.1467   -0.1765    2.4922 C   0  0  0  0  0  0  0  0  0  0  0  0
    3.6320   -0.8495    3.6002 C   0  0  0  0  0  0  0  0  0  0  0  0
    4.2879   -0.7529    4.8251 C   0  0  0  0  0  0  0  0  0  0  0  0
    5.4505    0.0097    4.9363 C   0  0  0  0  0  0  0  0  0  0  0  0
    5.9671    0.6700    3.8222 C   0  0  0  0  0  0  0  0  0  0  0  0
    5.3178    0.5741    2.5930 C   0  0  0  0  0  0  0  0  0  0  0  0
    2.0944    0.0095   -1.2965 C   0  0  0  0  0  0  0  0  0  0  0  0
    2.0679   -0.8233   -2.1600 O   0  0  0  0  0  0  0  0  0  0  0  0
    2.7529    1.1858   -1.4390 O   0  0  0  0  0  0  0  0  0  0  0  0
   -0.8049   -0.0444    1.2175 C   0  0  0  0  0  0  0  0  0  0  0  0
   -0.7022   -1.1388    2.0868 C   0  0  0  0  0  0  0  0  0  0  0  0
   -1.4662   -1.1909    3.2442 C   0  0  0  0  0  0  0  0  0  0  0  0
   -2.3373   -0.1289    3.5097 C   0  0  0  0  0  0  0  0  0  0  0  0
   -2.4606    0.9693    2.6616 C   0  0  0  0  0  0  0  0  0  0  0  0
   -1.6871    1.0007    1.5048 C   0  0  0  0  0  0  0  0  0  0  0  0
   -3.0045   -0.2565    4.7039 O   0  0  0  0  0  0  0  0  0  0  0  0
   -4.1603    0.4782    4.8499 C   0  0  0  0  0  0  0  0  0  0  0  0
   -5.3231    0.1780    4.1429 C   0  0  0  0  0  0  0  0  0  0  0  0
   -6.5017    0.8579    4.4278 C   0  0  0  0  0  0  0  0  0  0  0  0
   -6.5036    1.8325    5.4258 C   0  0  0  0  0  0  0  0  0  0  0  0
   -5.3377    2.1263    6.1339 C   0  0  0  0  0  0  0  0  0  0  0  0
   -4.1535    1.4520    5.8496 C   0  0  0  0  0  0  0  0  0  0  0  0
   -5.3129   -1.1639    2.8159 Br  0  0  0  0  0  0  0  0  0  0  0  0
   -0.5630    0.0296   -0.9358 H   0  0  0  0  0  0  0  0  0  0  0  0
    1.6323    0.2268    2.0419 H   0  0  0  0  0  0  0  0  0  0  0  0
    2.7320   -1.4578    3.5115 H   0  0  0  0  0  0  0  0  0  0  0  0
    3.8939   -1.2752    5.6953 H   0  0  0  0  0  0  0  0  0  0  0  0
    5.9591    0.0859    5.8966 H   0  0  0  0  0  0  0  0  0  0  0  0
    6.8799    1.2570    3.9099 H   0  0  0  0  0  0  0  0  0  0  0  0
    5.7228    1.0755    1.7115 H   0  0  0  0  0  0  0  0  0  0  0  0
    3.3513    1.1987   -2.2292 H   0  0  0  0  0  0  0  0  0  0  0  0
   -0.0309   -1.9625    1.8395 H   0  0  0  0  0  0  0  0  0  0  0  0
   -1.4126   -2.0349    3.9276 H   0  0  0  0  0  0  0  0  0  0  0  0
   -3.1467    1.7799    2.8918 H   0  0  0  0  0  0  0  0  0  0  0  0
   -1.7681    1.8468    0.8223 H   0  0  0  0  0  0  0  0  0  0  0  0
   -7.4231    0.6364    3.8863 H   0  0  0  0  0  0  0  0  0  0  0  0
   -7.4252    2.3662    5.6546 H   0  0  0  0  0  0  0  0  0  0  0  0
   -5.3526    2.8890    6.9130 H   0  0  0  0  0  0  0  0  0  0  0  0
   -3.2342    1.6627    6.3935 H   0  0  0  0  0  0  0  0  0  0  0  0
  1 15  1  0  0  0  0
  2  1  1  0  0  0  0
  2  3  2  0  0  0  0
  3 30  1  0  0  0  0
  4  3  1  0  0  0  0
  4  6  1  0  0  0  0
  5  4  2  0  0  0  0
  6 11  2  0  0  0  0
  6  7  1  0  0  0  0
  7  8  2  0  0  0  0
  8  9  1  0  0  0  0
  8 32  1  0  0  0  0
  9 33  1  0  0  0  0
 10 34  1  0  0  0  0
 10  9  2  0  0  0  0
 11 10  1  0  0  0  0
 12  2  1  0  0  0  0
 13 12  2  0  0  0  0
 14 12  1  0  0  0  0
 15 20  2  0  0  0  0
 15 16  1  0  0  0  0
 16 17  2  0  0  0  0
 17 18  1  0  0  0  0
 17 38  1  0  0  0  0
 18 21  1  0  0  0  0
 19 39  1  0  0  0  0
 19 18  2  0  0  0  0
 20 19  1  0  0  0  0
 21 22  1  0  0  0  0
 22 27  2  0  0  0  0
 23 24  2  0  0  0  0
 23 22  1  0  0  0  0
 24 25  1  0  0  0  0
 25 42  1  0  0  0  0
 25 26  2  0  0  0  0
 26 43  1  0  0  0  0
 27 26  1  0  0  0  0
 27 44  1  0  0  0  0
 28 23  1  0  0  0  0
 29  1  1  0  0  0  0
 31  7  1  0  0  0  0
 35 11  1  0  0  0  0
 36 14  1  0  0  0  0
 37 16  1  0  0  0  0
 40 20  1  0  0  0  0
 41 24  1  0  0  0  0
M  RAD  1   1   2
M  END
$$$$
