44
rmsd210.gzmat
C          0.00000        0.00000        0.00000
C          1.34610        0.00000        0.00000
N          2.11460        0.00000        1.17350
C          3.50780       -0.12210        1.14480
O          4.08640       -0.25150        0.08940
C          4.17180       -0.07410        2.46950
C          3.75340       -0.89280        3.51840
C          4.42040       -0.83410        4.73980
C          5.49860        0.03540        4.90560
C          5.91820        0.84410        3.85040
C          5.25730        0.78790        2.62530
C          2.09650       -0.00390       -1.29650
O          2.22490       -0.91550       -2.06490
O          2.53940        1.24830       -1.56580
C         -0.80410       -0.03450        1.21850
C         -1.64670        1.04290        1.52200
C         -2.42240        1.02320        2.67280
C         -2.34180       -0.09750        3.50680
C         -1.51050       -1.18020        3.22960
C         -0.74180       -1.14130        2.07010
O         -3.11780        0.00490        4.63640
C         -3.42550       -1.17420        5.27870
C         -4.30600       -2.10540        4.73090
C         -4.68580       -3.21850        5.47170
C         -4.18150       -3.38490        6.76160
C         -3.30790       -2.44460        7.30920
C         -2.91880       -1.33130        6.56940
Br        -4.99970       -1.85590        2.99370
H         -0.56500        0.02410       -0.93440
H          1.62200        0.13660        2.05210
H          2.92280       -1.58530        3.38380
H          4.10270       -1.46980        5.56440
H          6.01790        0.07920        5.86220
H          6.76440        1.51670        3.98090
H          5.58690        1.40710        1.78830
H          3.13090        1.28550       -2.36030
H         -1.69230        1.89980        0.84910
H         -3.08840        1.84470        2.92740
H         -1.46800       -2.03920        3.89300
H         -0.09900       -1.98560        1.81730
H         -5.37350       -3.95900        5.05940
H         -4.47590       -4.25540        7.34650
H         -2.92660       -2.58250        8.32110
H         -2.23960       -0.58510        6.97860
