44
rmsd220.gzmat
C          0.00000        0.00000        0.00000
C          1.34620        0.00000        0.00000
N          2.11890        0.00000        1.17050
C          3.50060       -0.21550        1.13820
O          4.05800       -0.43140        0.08520
C          4.18680       -0.15410        2.45090
C          3.71030       -0.85990        3.55530
C          4.40570       -0.79520        4.76060
C          5.56940       -0.03210        4.85590
C          6.04570        0.66440        3.74620
C          5.35620        0.60180        2.53720
C          2.08850        0.00480       -1.30090
O          2.11410       -0.86090       -2.13070
O          2.66390        1.21700       -1.49270
C         -0.81010       -0.02900        1.21390
C         -0.73050       -1.11860        2.09090
C         -1.49570       -1.14570        3.24890
C         -2.34590       -0.06480        3.50510
C         -2.45440        1.02420        2.64270
C         -1.67760        1.03250        1.48820
O         -3.09270       -0.21830        4.64800
C         -3.67170        0.92120        5.16190
C         -2.91750        1.90740        5.79460
C         -3.55460        2.97770        6.41130
C         -4.94770        3.04750        6.38810
C         -5.69850        2.05340        5.75990
C         -5.06500        0.98080        5.13830
Br        -1.03360        1.78720        5.82910
H         -0.56080        0.02320       -0.93740
H          1.64120        0.20230        2.04470
H          2.81060       -1.47030        3.47890
H          4.04160       -1.34310        5.62810
H          6.11050        0.01650        5.80010
H          6.95820        1.25360        3.82180
H          5.72860        1.13240        1.65840
H          3.25800        1.24010       -2.28570
H         -0.06870       -1.95380        1.85560
H         -1.44850       -1.97870        3.94650
H         -3.12790        1.84830        2.86110
H         -1.74140        1.87440        0.79820
H         -2.98180        3.75940        6.91270
H         -5.45240        3.88530        6.86780
H         -6.78680        2.11670        5.75230
H         -5.63220        0.19300        4.64420
