44
rmsd43.gzmat
C          0.00000        0.00000        0.00000
C          1.34690        0.00000        0.00000
N          2.09560        0.00000        1.18660
C          3.45850       -0.31220        1.21220
O          4.04050       -0.59410        0.18930
C          4.08240       -0.24730        2.55650
C          3.48670       -0.85460        3.66250
C          4.10020       -0.75990        4.90920
C          5.30390       -0.06810        5.04350
C          5.90570        0.51780        3.93080
C          5.29700        0.42640        2.68070
C          2.10700        0.00200       -1.28780
O          2.07150       -0.82860       -2.15310
O          2.79120        1.16370       -1.42020
C         -0.75720       -0.05700        1.25000
C         -0.84950       -1.27060        1.93780
C         -1.47350       -1.32500        3.17950
C         -1.99340       -0.14510        3.70770
C         -1.96080        1.07000        3.01680
C         -1.33820        1.10240        1.77520
O         -2.63100       -0.07160        4.92360
C         -2.32290       -1.05280        5.83850
C         -1.05870       -1.18390        6.41020
C         -0.84900       -2.11600        7.42050
C         -1.91250       -2.90780        7.85210
C         -3.17870       -2.76650        7.28290
C         -3.39340       -1.83900        6.26820
Br         0.37660       -0.09100        5.84640
H         -0.58080        0.03090       -0.92080
H          1.59860        0.21960        2.04710
H          2.55540       -1.41150        3.55710
H          3.64080       -1.22900        5.77830
H          5.77800        0.01070        6.02090
H          6.85220        1.04500        4.03660
H          5.76580        0.87280        1.80110
H          3.39070        1.17020       -2.20970
H         -0.42160       -2.17470        1.50160
H         -1.54690       -2.26290        3.72260
H         -2.40300        1.96060        3.45780
H         -1.28510        2.03660        1.21570
H          0.13290       -2.23280        7.88180
H         -1.75350       -3.64030        8.64240
H         -4.00400       -3.38800        7.63130
H         -4.37380       -1.71200        5.81030
