44
rmsd1.gzmat
C          0.00000        0.00000        0.00000
C          1.34640        0.00000        0.00000
N          2.12290        0.00000        1.16780
C          3.50500       -0.21460        1.13250
O          4.05720       -0.44440        0.07990
C          4.19040       -0.16830        2.44610
C          3.96070        0.87060        3.34800
C          4.64290        0.88720        4.56220
C          5.54980       -0.12760        4.86760
C          5.78560       -1.15630        3.95670
C          5.10880       -1.17710        2.73910
C          2.08780        0.00910       -1.30190
O          2.11500       -0.85770       -2.13070
O          2.65870        1.22320       -1.49350
C         -0.81960       -0.04000        1.20670
C         -1.74950        0.97800        1.44040
C         -2.55530        0.94760        2.57450
C         -2.41740       -0.12380        3.45440
C         -1.49570       -1.15450        3.24650
C         -0.69800       -1.10310        2.11150
O         -3.12180       -0.24390        4.62900
C         -4.33870        0.39810        4.68480
C         -5.43040       -0.00360        3.91730
C         -6.66970        0.59670        4.10860
C         -6.80460        1.59370        5.07470
C         -5.71080        1.98520        5.84770
C         -4.46610        1.39210        5.65630
Br        -5.24650       -1.37270        2.63130
H         -0.55730        0.02910       -0.94040
H          1.63910        0.14210        2.04980
H          3.26610        1.67400        3.10270
H          4.47060        1.69520        5.27130
H          6.07880       -0.11330        5.81980
H          6.50230       -1.94120        4.19340
H          5.29870       -1.97040        2.01260
H          3.25550        1.24870       -2.28480
H         -1.84350        1.80110        0.73180
H         -3.27850        1.73640        2.76270
H         -1.42890       -1.97670        3.95580
H          0.01190       -1.90680        1.90970
H         -7.53580        0.29550        3.51680
H         -7.77360        2.06710        5.22820
H         -5.82940        2.76080        6.60450
H         -3.60070        1.68180        6.25000
