44

C          0.16480        0.83700        0.37930
C          1.49650        0.71550        0.16480
N          2.44590        0.55250        1.18510
C          3.43750       -0.40840        1.14180
O          3.51660       -1.21340        0.23230
C          4.38270       -0.41070        2.30670
C          4.58580        0.70020        3.14040
C          5.48440        0.62590        4.20690
C          6.18810       -0.55730        4.44760
C          6.00010       -1.66350        3.61190
C          5.10760       -1.58840        2.54380
C          1.99260        0.87180       -1.23750
O          1.30490        0.73780       -2.22210
O          3.28400        1.24380       -1.29140
C         -0.59070        0.73940        1.62500
C         -1.88180        1.30430        1.66630
C         -2.67420        1.25460        2.81000
C         -2.18610        0.60960        3.95130
C         -0.91860        0.01520        3.93520
C         -0.13330        0.08220        2.79130
O         -2.88500        0.52160        5.12570
C         -4.20050        0.90690        5.17220
C         -5.22320        0.06540        4.70600
C         -6.55910        0.46100        4.81290
C         -6.87600        1.69500        5.38550
C         -5.86070        2.53350        5.85370
C         -4.52640        2.13920        5.74370
Br        -4.78930       -1.61760        3.94380
H         -0.41490        1.08070       -0.51420
H          2.27720        1.03580        2.05920
H          4.07030        1.64300        2.94310
H          5.64250        1.49790        4.84560
H          6.88980       -0.61500        5.28320
H          6.55490       -2.58690        3.79410
H          4.95140       -2.43270        1.87030
H          3.52030        1.27320       -2.23320
H         -2.27030        1.80000        0.77350
H         -3.66700        1.70500        2.81310
H         -0.57470       -0.50750        4.82900
H          0.83300       -0.42040        2.79270
H         -7.34380       -0.20420        4.44980
H         -7.92230        1.99660        5.46780
H         -6.10620        3.49720        6.30480
H         -3.71140        2.77180        6.10010
