44
rmsd202.gzmat
C          0.00000        0.00000        0.00000
C          1.34570        0.00000        0.00000
N          2.11010        0.00000        1.17620
C          3.50640       -0.07920        1.15400
O          4.09680       -0.17950        0.10250
C          4.15680       -0.02060        2.48530
C          3.79970       -0.90870        3.49940
C          4.45110       -0.83980        4.72850
C          5.44800        0.11310        4.93810
C          5.80520        0.99310        3.91750
C          5.16290        0.92470        2.68300
C          2.09730       -0.00340       -1.29550
O          2.21960       -0.91400       -2.06680
O          2.54870        1.24680       -1.56070
C         -0.79580       -0.00960        1.22540
C         -1.49660        1.13900        1.60080
C         -2.24770        1.15080        2.77250
C         -2.29090       -0.00970        3.54200
C         -1.60410       -1.17540        3.18460
C         -0.85480       -1.16390        2.01630
O         -2.96450       -0.12310        4.73330
C         -3.88020        0.86670        5.01850
C         -5.11410        0.92970        4.37400
C         -6.05810        1.86650        4.77750
C         -5.75610        2.72910        5.83160
C         -4.52250        2.65490        6.47950
C         -3.56970        1.72450        6.07300
Br        -5.51390       -0.26110        2.96640
H         -0.56880        0.01170       -0.93150
H          1.61010        0.10850        2.05490
H          3.02830       -1.66010        3.33120
H          4.18500       -1.53240        5.52510
H          5.95210        0.16660        5.90220
H          6.58890        1.73050        4.08260
H          5.44700        1.59870        1.87230
H          3.14930        1.28100       -2.34850
H         -1.45120        2.03190        0.97640
H         -2.78830        2.04470        3.07070
H         -1.67440       -2.06230        3.80970
H         -0.31820       -2.06060        1.70320
H         -7.02890        1.93330        4.28350
H         -6.49310        3.46450        6.15240
H         -4.30190        3.32930        7.30730
H         -2.59970        1.65150        6.56260
