rmsd44.gzmat
 OpenBabel08211713373D

 44 46  0  0  0  0  0  0  0  0999 V2000
    0.0000    0.0000    0.0000 C   0  0  0  0  0  0  0  0  0  0  0  0
    1.3462    0.0000    0.0000 C   0  0  0  0  0  0  0  0  0  0  0  0
    2.0979    0.0000    1.1844 N   0  0  0  0  0  0  0  0  0  0  0  0
    3.4841   -0.1861    1.1911 C   0  0  0  0  0  0  0  0  0  0  0  0
    4.0822   -0.3285    0.1483 O   0  0  0  0  0  0  0  0  0  0  0  0
    4.1128   -0.1558    2.5331 C   0  0  0  0  0  0  0  0  0  0  0  0
    3.5694   -0.8571    3.6099 C   0  0  0  0  0  0  0  0  0  0  0  0
    4.1898   -0.7887    4.8548 C   0  0  0  0  0  0  0  0  0  0  0  0
    5.3510   -0.0324    5.0152 C   0  0  0  0  0  0  0  0  0  0  0  0
    5.9008    0.6499    3.9311 C   0  0  0  0  0  0  0  0  0  0  0  0
    5.2842    0.5867    2.6834 C   0  0  0  0  0  0  0  0  0  0  0  0
    2.1181    0.0291   -1.2822 C   0  0  0  0  0  0  0  0  0  0  0  0
    2.5082    0.9914   -1.8829 O   0  0  0  0  0  0  0  0  0  0  0  0
    2.2315   -1.2315   -1.7647 O   0  0  0  0  0  0  0  0  0  0  0  0
   -0.7584   -0.0572    1.2495 C   0  0  0  0  0  0  0  0  0  0  0  0
   -0.9026   -1.2844    1.9029 C   0  0  0  0  0  0  0  0  0  0  0  0
   -1.5283   -1.3470    3.1435 C   0  0  0  0  0  0  0  0  0  0  0  0
   -1.9983   -0.1612    3.7042 C   0  0  0  0  0  0  0  0  0  0  0  0
   -1.9128    1.0703    3.0482 C   0  0  0  0  0  0  0  0  0  0  0  0
   -1.2888    1.1109    1.8076 C   0  0  0  0  0  0  0  0  0  0  0  0
   -2.6361   -0.0974    4.9209 O   0  0  0  0  0  0  0  0  0  0  0  0
   -2.3500   -1.1015    5.8175 C   0  0  0  0  0  0  0  0  0  0  0  0
   -1.0864   -1.2821    6.3771 C   0  0  0  0  0  0  0  0  0  0  0  0
   -0.9006   -2.2341    7.3735 C   0  0  0  0  0  0  0  0  0  0  0  0
   -1.9868   -2.9954    7.8040 C   0  0  0  0  0  0  0  0  0  0  0  0
   -3.2519   -2.8058    7.2460 C   0  0  0  0  0  0  0  0  0  0  0  0
   -3.4426   -1.8593    6.2445 C   0  0  0  0  0  0  0  0  0  0  0  0
    0.3829   -0.2322    5.8178 Br  0  0  0  0  0  0  0  0  0  0  0  0
   -0.5807    0.0307   -0.9203 H   0  0  0  0  0  0  0  0  0  0  0  0
    1.5868    0.1185    2.0566 H   0  0  0  0  0  0  0  0  0  0  0  0
    2.6744   -1.4663    3.4825 H   0  0  0  0  0  0  0  0  0  0  0  0
    3.7686   -1.3270    5.7024 H   0  0  0  0  0  0  0  0  0  0  0  0
    5.8321    0.0218    5.9909 H   0  0  0  0  0  0  0  0  0  0  0  0
    6.8131    1.2308    4.0569 H   0  0  0  0  0  0  0  0  0  0  0  0
    5.7131    1.1088    1.8245 H   0  0  0  0  0  0  0  0  0  0  0  0
    2.8216   -1.2899   -2.5589 H   0  0  0  0  0  0  0  0  0  0  0  0
   -0.5142   -2.1934    1.4417 H   0  0  0  0  0  0  0  0  0  0  0  0
   -1.6411   -2.2954    3.6608 H   0  0  0  0  0  0  0  0  0  0  0  0
   -2.3171    1.9661    3.5144 H   0  0  0  0  0  0  0  0  0  0  0  0
   -1.1950    2.0577    1.2746 H   0  0  0  0  0  0  0  0  0  0  0  0
    0.0804   -2.3903    7.8246 H   0  0  0  0  0  0  0  0  0  0  0  0
   -1.8465   -3.7420    8.5845 H   0  0  0  0  0  0  0  0  0  0  0  0
   -4.0950   -3.4033    7.5939 H   0  0  0  0  0  0  0  0  0  0  0  0
   -4.4212   -1.6950    5.7943 H   0  0  0  0  0  0  0  0  0  0  0  0
  1 15  1  0  0  0  0
  2  1  1  0  0  0  0
  2  3  2  0  0  0  0
  3  4  1  0  0  0  0
  3 30  1  0  0  0  0
  4  6  1  0  0  0  0
  5  4  2  0  0  0  0
  6 11  2  0  0  0  0
  6  7  1  0  0  0  0
  7  8  2  0  0  0  0
  8  9  1  0  0  0  0
  8 32  1  0  0  0  0
  9 33  1  0  0  0  0
 10 34  1  0  0  0  0
 10  9  2  0  0  0  0
 11 10  1  0  0  0  0
 12  2  1  0  0  0  0
 13 12  2  0  0  0  0
 14 12  1  0  0  0  0
 15 20  2  0  0  0  0
 15 16  1  0  0  0  0
 16 17  2  0  0  0  0
 17 38  1  0  0  0  0
 17 18  1  0  0  0  0
 18 21  1  0  0  0  0
 19 39  1  0  0  0  0
 19 18  2  0  0  0  0
 20 19  1  0  0  0  0
 21 22  1  0  0  0  0
 22 27  2  0  0  0  0
 22 23  1  0  0  0  0
 23 24  2  0  0  0  0
 24 25  1  0  0  0  0
 24 41  1  0  0  0  0
 25 42  1  0  0  0  0
 26 43  1  0  0  0  0
 26 25  2  0  0  0  0
 27 26  1  0  0  0  0
 28 23  1  0  0  0  0
 29  1  1  0  0  0  0
 31  7  1  0  0  0  0
 35 11  1  0  0  0  0
 36 14  1  0  0  0  0
 37 16  1  0  0  0  0
 40 20  1  0  0  0  0
 44 27  1  0  0  0  0
M  RAD  1   1   2
M  END
$$$$
