44
rmsd57.gzmat
C          0.00000        0.00000        0.00000
C          1.34520        0.00000        0.00000
N          2.10630        0.00000        1.17840
C          3.50440       -0.03970        1.15890
O          4.09610       -0.12110        0.10570
C          4.15710        0.00260        2.48940
C          5.17980       -0.91030        2.74720
C          5.82390       -0.88790        3.98250
C          5.45150        0.04870        4.94570
C          4.43960        0.97010        4.67600
C          3.78970        0.95060        3.44430
C          2.10390       -0.00020       -1.29160
O          2.27760       -0.92330       -2.03750
O          2.49510        1.26330       -1.58550
C         -0.79330       -0.00260        1.22860
C         -1.28600        1.20730        1.73310
C         -2.03890        1.22410        2.89900
C         -2.28950        0.00690        3.54250
C         -1.81300       -1.20920        3.05920
C         -1.05980       -1.20440        1.88800
O         -3.00130        0.15000        4.70830
C         -3.59670       -0.98360        5.21580
C         -4.73340       -1.53830        4.63100
C         -5.38880       -2.59290        5.25580
C         -4.89500       -3.08270        6.46490
C         -3.75820       -2.52150        7.04760
C         -3.09550       -1.46760        6.42410
Br        -5.39240       -0.85470        3.00010
H         -0.57250        0.00570       -0.92880
H          1.59810        0.02180        2.05830
H          5.47550       -1.63000        1.98040
H          6.62160       -1.59900        4.19170
H          5.95660        0.06470        5.91070
H          4.16040        1.70730        5.42690
H          3.01150        1.68220        3.22690
H          3.09900        1.30710       -2.37080
H         -1.07910        2.13770        1.20300
H         -2.44070        2.14840        3.30810
H         -2.02850       -2.14050        3.57560
H         -0.68140       -2.14300        1.48070
H         -6.28210       -3.03850        4.81510
H         -5.40280       -3.91050        6.95810
H         -3.38510       -2.90990        7.99520
H         -2.20700       -1.01540        6.86150
