44

C          0.08160        0.79180        0.00090
C          1.43250        0.70960        0.04890
N          2.16080        0.42870        1.21490
C          3.17210       -0.51100        1.26200
O          3.46360       -1.19500        0.29840
C          3.85800       -0.65140        2.58890
C          4.55560       -1.84480        2.82870
C          5.21230       -2.04550        4.04180
C          5.19040       -1.04950        5.02410
C          4.51400        0.15000        4.78570
C          3.85090        0.34960        3.57290
C          2.19590        1.04420       -1.19290
O          1.72580        1.02830       -2.30610
O          3.45820        1.43080       -0.93630
C         -0.90310        0.53110        1.04750
C         -2.19460        1.08590        0.90250
C         -3.18950        0.87760        1.84800
C         -2.92120        0.08770        2.97200
C         -1.66020       -0.49600        3.13590
C         -0.66850       -0.27290        2.18340
O         -3.94380       -0.06210        3.87050
C         -3.82900       -0.96330        4.89800
C         -4.04090       -2.33590        4.69130
C         -3.96780       -3.22540        5.76640
C         -3.68500       -2.74710        7.04790
C         -3.47740       -1.38110        7.25780
C         -3.54700       -0.49350        6.18300
Br        -4.44120       -2.97980        2.95170
H         -0.31560        1.14160       -0.95510
H          1.79800        0.79380        2.08760
H          4.56770       -2.60040        2.04150
H          5.74710       -2.98080        4.22330
H          5.70810       -1.20520        5.97370
H          4.51100        0.93790        5.54250
H          3.35750        1.30630        3.38670
H          3.87860        1.58010       -1.79930
H         -2.41280        1.69500        0.02200
H         -4.18600        1.30700        1.73390
H         -1.45700       -1.13310        3.99690
H          0.29270       -0.76890        2.31260
H         -4.13780       -4.28890        5.59210
H         -3.63190       -3.44790        7.88370
H         -3.25990       -1.00440        8.25930
H         -3.39010        0.57860        6.31480
