
     RDKit          3D

 44 46  0  0  0  0  0  0  0  0999 V2000
    0.0121    0.0121   -0.3129 C   0  0  0  0  0  0  0  0  0  0  0  0
    1.3444    0.2365   -0.3299 C   0  0  0  0  0  0  0  0  0  0  0  0
    2.0618    0.4351    0.8614 N   0  0  0  0  0  0  0  0  0  0  0  0
    3.2352   -0.2115    1.1822 C   0  0  0  0  0  0  0  0  0  0  0  0
    3.8526   -0.8852    0.3782 O   0  0  0  0  0  0  0  0  0  0  0  0
    3.6878   -0.0275    2.6041 C   0  0  0  0  0  0  0  0  0  0  0  0
    2.8097    0.2790    3.6571 C   0  0  0  0  0  0  0  0  0  0  0  0
    3.2880    0.3931    4.9639 C   0  0  0  0  0  0  0  0  0  0  0  0
    4.6472    0.2067    5.2301 C   0  0  0  0  0  0  0  0  0  0  0  0
    5.5245   -0.1110    4.1875 C   0  0  0  0  0  0  0  0  0  0  0  0
    5.0455   -0.2384    2.8843 C   0  0  0  0  0  0  0  0  0  0  0  0
    2.0445    0.4038   -1.6404 C   0  0  0  0  0  0  0  0  0  0  0  0
    1.6391   -0.0513   -2.6831 O   0  0  0  0  0  0  0  0  0  0  0  0
    3.1386    1.1762   -1.5465 O   0  0  0  0  0  0  0  0  0  0  0  0
   -0.7442   -0.1594    0.9405 C   0  0  0  0  0  0  0  0  0  0  0  0
   -0.3119   -1.0821    1.9157 C   0  0  0  0  0  0  0  0  0  0  0  0
   -0.9369   -1.1661    3.1536 C   0  0  0  0  0  0  0  0  0  0  0  0
   -2.0062   -0.3135    3.4436 C   0  0  0  0  0  0  0  0  0  0  0  0
   -2.4931    0.5698    2.4763 C   0  0  0  0  0  0  0  0  0  0  0  0
   -1.8657    0.6342    1.2311 C   0  0  0  0  0  0  0  0  0  0  0  0
   -2.5466   -0.4021    4.7045 O   0  0  0  0  0  0  0  0  0  0  0  0
   -3.1319    0.7051    5.2584 C   0  0  0  0  0  0  0  0  0  0  0  0
   -2.3845    1.8391    5.6221 C   0  0  0  0  0  0  0  0  0  0  0  0
   -3.0126    2.9315    6.2245 C   0  0  0  0  0  0  0  0  0  0  0  0
   -4.3865    2.8954    6.4745 C   0  0  0  0  0  0  0  0  0  0  0  0
   -5.1320    1.7664    6.1258 C   0  0  0  0  0  0  0  0  0  0  0  0
   -4.5052    0.6787    5.5162 C   0  0  0  0  0  0  0  0  0  0  0  0
   -0.5023    1.8926    5.3358 Br  0  0  0  0  0  0  0  0  0  0  0  0
   -0.5131    0.0240   -1.2713 H   0  0  0  0  0  0  0  0  0  0  0  0
    1.5533    0.8859    1.6122 H   0  0  0  0  0  0  0  0  0  0  0  0
    1.7371    0.3954    3.4840 H   0  0  0  0  0  0  0  0  0  0  0  0
    2.5922    0.6173    5.7761 H   0  0  0  0  0  0  0  0  0  0  0  0
    5.0218    0.2999    6.2523 H   0  0  0  0  0  0  0  0  0  0  0  0
    6.5861   -0.2655    4.3947 H   0  0  0  0  0  0  0  0  0  0  0  0
    5.7069   -0.5052    2.0582 H   0  0  0  0  0  0  0  0  0  0  0  0
    3.5397    1.1938   -2.4313 H   0  0  0  0  0  0  0  0  0  0  0  0
    0.5376   -1.7316    1.6968 H   0  0  0  0  0  0  0  0  0  0  0  0
   -0.5918   -1.8596    3.9219 H   0  0  0  0  0  0  0  0  0  0  0  0
   -3.3395    1.2189    2.7045 H   0  0  0  0  0  0  0  0  0  0  0  0
   -2.2313    1.3422    0.4832 H   0  0  0  0  0  0  0  0  0  0  0  0
   -2.4179    3.8027    6.5031 H   0  0  0  0  0  0  0  0  0  0  0  0
   -4.8696    3.7521    6.9489 H   0  0  0  0  0  0  0  0  0  0  0  0
   -6.2053    1.7320    6.3238 H   0  0  0  0  0  0  0  0  0  0  0  0
   -5.0606   -0.2156    5.2281 H   0  0  0  0  0  0  0  0  0  0  0  0
  1  2  2  0
  1 15  1  0
  1 29  1  0
  2  3  1  0
  2 12  1  0
  3  4  1  0
  3 30  1  0
  4  5  2  0
  4  6  1  0
  6  7  2  0
  6 11  1  0
  7  8  1  0
  7 31  1  0
  8  9  2  0
  8 32  1  0
  9 10  1  0
  9 33  1  0
 10 11  2  0
 10 34  1  0
 11 35  1  0
 12 13  2  0
 12 14  1  0
 14 36  1  0
 15 16  2  0
 15 20  1  0
 16 17  1  0
 16 37  1  0
 17 18  2  0
 17 38  1  0
 18 19  1  0
 18 21  1  0
 19 20  2  0
 19 39  1  0
 20 40  1  0
 21 22  1  0
 22 23  2  0
 22 27  1  0
 23 24  1  0
 23 28  1  0
 24 25  2  0
 24 41  1  0
 25 26  1  0
 25 42  1  0
 26 27  2  0
 26 43  1  0
 27 44  1  0
M  END

