rmsd74.gzmat
 OpenBabel08211713363D

 40 41  0  0  1  0  0  0  0  0999 V2000
    0.0000    0.0000    0.0000 C   0  0  0  0  0  0  0  0  0  0  0  0
    1.4863    0.0000    0.0000 C   0  0  0  0  0  0  0  0  0  0  0  0
    2.1266    0.0000    1.2175 N   0  0  0  0  0  0  0  0  0  0  0  0
    3.4573    0.0303    1.2291 C   0  0  0  0  0  0  0  0  0  0  0  0
    4.2347    0.0384    0.0513 C   0  0  1  0  0  0  0  0  0  0  0  0
    3.5084   -0.0004   -1.1729 C   0  0  0  0  0  0  0  0  0  0  0  0
    2.1328   -0.0078   -1.1765 N   0  0  0  0  0  0  0  0  0  0  0  0
    4.0865   -0.0860   -2.3987 N   0  0  0  0  0  0  0  0  0  0  0  0
    5.7031    0.1753    0.1198 C   0  0  0  0  0  0  0  0  0  0  0  0
    6.4054   -1.0977   -0.1777 N   0  0  0  0  0  0  0  0  0  0  0  0
    5.7821   -2.2487   -0.4898 C   0  0  0  0  0  0  0  0  0  0  0  0
    6.8783   -3.4539   -0.9766 S   0  0  0  0  0  0  0  0  0  0  0  0
    8.2265   -2.3989   -0.7391 C   0  0  0  0  0  0  0  0  0  0  0  0
    7.8040   -1.1658   -0.2798 C   0  0  0  0  0  0  0  0  0  0  0  0
    8.6347    0.0002    0.0765 C   0  0  0  0  0  0  0  0  0  0  0  0
    9.5918   -2.7614   -1.1572 C   0  0  0  0  0  0  0  0  0  0  0  0
    9.9464   -2.0590   -2.4972 C   0  0  0  0  0  0  0  0  0  0  0  0
    8.7865   -2.1362   -3.3455 O   0  0  0  0  0  0  0  0  0  0  0  0
    7.9681   -0.8352   -3.7975 P   0  0  0  0  0  0  0  0  0  0  0  0
    7.2392   -0.0831   -2.7785 O   0  0  0  0  0  0  0  0  0  0  0  0
    9.0749   -0.0459   -4.6142 O   0  0  0  0  0  0  0  0  0  0  0  0
    6.9690   -1.5035   -4.8232 O   0  0  0  0  0  0  0  0  0  0  0  0
   -0.3958   -0.9576    0.3838 H   0  0  0  0  0  0  0  0  0  0  0  0
   -0.4180    0.1567   -1.0096 H   0  0  0  0  0  0  0  0  0  0  0  0
   -0.4000    0.7889    0.6641 H   0  0  0  0  0  0  0  0  0  0  0  0
    3.9293    0.0539    2.2238 H   0  0  0  0  0  0  0  0  0  0  0  0
    3.5174   -0.0516   -3.2306 H   0  0  0  0  0  0  0  0  0  0  0  0
    5.0806   -0.0832   -2.5138 H   0  0  0  0  0  0  0  0  0  0  0  0
    6.0369    0.5291    1.1304 H   0  0  0  0  0  0  0  0  0  0  0  0
    6.0737    0.9417   -0.6190 H   0  0  0  0  0  0  0  0  0  0  0  0
    4.6950   -2.3655   -0.4448 H   0  0  0  0  0  0  0  0  0  0  0  0
    8.4526    0.8622   -0.5977 H   0  0  0  0  0  0  0  0  0  0  0  0
    9.7135   -0.2186   -0.0045 H   0  0  0  0  0  0  0  0  0  0  0  0
    8.4633    0.3479    1.1097 H   0  0  0  0  0  0  0  0  0  0  0  0
    9.7266   -3.8598   -1.2732 H   0  0  0  0  0  0  0  0  0  0  0  0
   10.3436   -2.4740   -0.3865 H   0  0  0  0  0  0  0  0  0  0  0  0
   10.6900   -2.6584   -3.0722 H   0  0  0  0  0  0  0  0  0  0  0  0
   10.3737   -1.0554   -2.3149 H   0  0  0  0  0  0  0  0  0  0  0  0
    8.7577    0.9262   -4.7498 H   0  0  0  0  0  0  0  0  0  0  0  0
    7.5028   -2.0964   -5.4841 H   0  0  0  0  0  0  0  0  0  0  0  0
  1  2  1  0  0  0  0
  1 23  1  0  0  0  0
  1 25  1  0  0  0  0
  2  3  2  0  0  0  0
  3  4  2  0  0  0  0
  4 26  1  0  0  0  0
  5  9  1  6  0  0  0
  5  4  1  0  0  0  0
  6  5  1  0  0  0  0
  7  6  2  0  0  0  0
  7  2  2  0  0  0  0
  8  6  1  0  0  0  0
  9 29  1  0  0  0  0
 10  9  1  0  0  0  0
 11 31  1  0  0  0  0
 11 10  1  0  0  0  0
 12 13  1  0  0  0  0
 12 11  1  0  0  0  0
 13 14  2  0  0  0  0
 14 10  1  0  0  0  0
 14 15  1  0  0  0  0
 15 34  1  0  0  0  0
 16 13  1  0  0  0  0
 16 36  1  0  0  0  0
 17 38  1  0  0  0  0
 17 16  1  0  0  0  0
 18 17  1  0  0  0  0
 19 18  1  0  0  0  0
 19 20  2  0  0  0  0
 21 19  1  0  0  0  0
 22 19  1  0  0  0  0
 24  1  1  0  0  0  0
 27  8  1  0  0  0  0
 28  8  1  0  0  0  0
 30  9  1  0  0  0  0
 32 15  1  0  0  0  0
 33 15  1  0  0  0  0
 35 16  1  0  0  0  0
 37 17  1  0  0  0  0
 39 21  1  0  0  0  0
 40 22  1  0  0  0  0
M  RAD  1   5   2
M  END
$$$$
