rmsd101.gzmat
 OpenBabel08211713363D

 40 41  0  0  1  0  0  0  0  0999 V2000
    0.0000    0.0000    0.0000 C   0  0  0  0  0  0  0  0  0  0  0  0
    1.4860    0.0000    0.0000 C   0  0  0  0  0  0  0  0  0  0  0  0
    2.1273    0.0000    1.2179 N   0  0  0  0  0  0  0  0  0  0  0  0
    3.4578   -0.0225    1.2277 C   0  0  0  0  0  0  0  0  0  0  0  0
    4.2342   -0.0212    0.0493 C   0  0  2  0  0  0  0  0  0  0  0  0
    3.5078   -0.0203   -1.1750 C   0  0  0  0  0  0  0  0  0  0  0  0
    2.1321    0.0014   -1.1758 N   0  0  0  0  0  0  0  0  0  0  0  0
    4.0793   -0.0635   -2.4063 N   0  0  0  0  0  0  0  0  0  0  0  0
    5.7062   -0.1041    0.1134 C   0  0  0  0  0  0  0  0  0  0  0  0
    6.3419    1.2257   -0.0695 N   0  0  0  0  0  0  0  0  0  0  0  0
    5.6689    2.3915   -0.0309 C   0  0  0  0  0  0  0  0  0  0  0  0
    6.6793    3.7207   -0.3528 S   0  0  0  0  0  0  0  0  0  0  0  0
    8.0562    2.6976   -0.5396 C   0  0  0  0  0  0  0  0  0  0  0  0
    7.7101    1.3724   -0.3430 C   0  0  0  0  0  0  0  0  0  0  0  0
    8.5861    0.1885   -0.4137 C   0  0  0  0  0  0  0  0  0  0  0  0
    9.3691    3.1793   -1.0057 C   0  0  0  0  0  0  0  0  0  0  0  0
    9.4383    3.1059   -2.5579 C   0  0  0  0  0  0  0  0  0  0  0  0
    8.7382    1.9035   -2.9206 O   0  0  0  0  0  0  0  0  0  0  0  0
    7.4787    1.8514   -3.8879 P   0  0  0  0  0  0  0  0  0  0  0  0
    6.8447    0.5534   -3.7125 O   0  0  0  0  0  0  0  0  0  0  0  0
    6.5898    3.1072   -3.4737 O   0  0  0  0  0  0  0  0  0  0  0  0
    8.0000    2.2798   -5.3247 O   0  0  0  0  0  0  0  0  0  0  0  0
   -0.3882   -1.0332    0.0840 H   0  0  0  0  0  0  0  0  0  0  0  0
   -0.4168    0.4265   -0.9285 H   0  0  0  0  0  0  0  0  0  0  0  0
   -0.4088    0.5618    0.8589 H   0  0  0  0  0  0  0  0  0  0  0  0
    3.9314   -0.0438    2.2220 H   0  0  0  0  0  0  0  0  0  0  0  0
    3.4948   -0.0457   -3.2300 H   0  0  0  0  0  0  0  0  0  0  0  0
    5.0554    0.1058   -2.5425 H   0  0  0  0  0  0  0  0  0  0  0  0
    6.1093   -0.7954   -0.6764 H   0  0  0  0  0  0  0  0  0  0  0  0
    6.0570   -0.5197    1.0952 H   0  0  0  0  0  0  0  0  0  0  0  0
    4.5956    2.4479    0.1725 H   0  0  0  0  0  0  0  0  0  0  0  0
    8.6620   -0.3481    0.5464 H   0  0  0  0  0  0  0  0  0  0  0  0
    9.6160    0.4557   -0.7174 H   0  0  0  0  0  0  0  0  0  0  0  0
    8.2544   -0.5387   -1.1824 H   0  0  0  0  0  0  0  0  0  0  0  0
   10.1893    2.5614   -0.5714 H   0  0  0  0  0  0  0  0  0  0  0  0
    9.6030    4.2145   -0.6771 H   0  0  0  0  0  0  0  0  0  0  0  0
   10.4792    2.9084   -2.8985 H   0  0  0  0  0  0  0  0  0  0  0  0
    9.0907    4.0507   -3.0143 H   0  0  0  0  0  0  0  0  0  0  0  0
    6.3015    3.6174   -4.3204 H   0  0  0  0  0  0  0  0  0  0  0  0
    8.1683    1.4325   -5.8877 H   0  0  0  0  0  0  0  0  0  0  0  0
  1 23  1  0  0  0  0
  1 25  1  0  0  0  0
  2  1  1  0  0  0  0
  2  3  2  0  0  0  0
  3  4  2  0  0  0  0
  4 26  1  0  0  0  0
  5  9  1  6  0  0  0
  5  4  1  0  0  0  0
  6  5  1  0  0  0  0
  7  6  2  0  0  0  0
  7  2  2  0  0  0  0
  8  6  1  0  0  0  0
  9 30  1  0  0  0  0
 10 11  1  0  0  0  0
 10  9  1  0  0  0  0
 11 31  1  0  0  0  0
 12 11  1  0  0  0  0
 13 12  1  0  0  0  0
 13 14  2  0  0  0  0
 14 10  1  0  0  0  0
 15 14  1  0  0  0  0
 15 32  1  0  0  0  0
 16 36  1  0  0  0  0
 16 35  1  0  0  0  0
 16 13  1  0  0  0  0
 17 16  1  0  0  0  0
 18 17  1  0  0  0  0
 19 20  2  0  0  0  0
 19 21  1  0  0  0  0
 19 18  1  0  0  0  0
 22 19  1  0  0  0  0
 24  1  1  0  0  0  0
 27  8  1  0  0  0  0
 28  8  1  0  0  0  0
 29  9  1  0  0  0  0
 33 15  1  0  0  0  0
 34 15  1  0  0  0  0
 37 17  1  0  0  0  0
 38 17  1  0  0  0  0
 39 21  1  0  0  0  0
 40 22  1  0  0  0  0
M  RAD  1   5   2
M  END
$$$$
