40
rmsd169.gzmat
C          0.00000        0.00000        0.00000
C          1.48640        0.00000        0.00000
N          2.12800        0.00000        1.21750
C          3.45890       -0.00160        1.22610
C          4.23470        0.02350        0.04750
C          3.50820        0.02540       -1.17710
N          2.13210        0.02010       -1.17580
N          4.07640       -0.00040       -2.41180
C          5.70800       -0.04130        0.11640
N          6.32930        1.30310        0.00290
C          5.63260        2.45260       -0.03530
S          6.63310        3.79140       -0.35950
C          8.04070        2.78880       -0.44750
C          7.71060        1.47050       -0.19480
C          8.61440        0.30610       -0.12610
C          9.34510        3.30660       -0.89580
C          9.74740        2.71320       -2.27140
O          8.75330        2.99740       -3.25970
P          7.61780        1.95370       -3.71060
O          6.80700        1.36770       -2.64900
O          6.85290        2.85180       -4.77190
O          8.30380        0.80770       -4.55010
H         -0.40800       -0.55480        0.86520
H         -0.41300       -0.44310       -0.92350
H         -0.39240        1.03050        0.07060
H          3.93360       -0.02560        2.21940
H          3.48330        0.02370       -3.22990
H          5.04000        0.23230       -2.55070
H          6.12600       -0.67970       -0.71050
H          6.05800       -0.50740        1.07440
H          4.54900        2.49530        0.11110
H          8.49010       -0.27920        0.80130
H          9.67710        0.60180       -0.16450
H          8.46190       -0.38910       -0.97680
H         10.14810        3.06780       -0.15890
H          9.36090        4.41780       -0.96970
H         10.03760        1.64990       -2.17490
H         10.61220        3.28030       -2.69420
H          7.05820        3.84830       -4.59040
H          8.66130        1.19270       -5.44070
