rmsd55.gzmat
 OpenBabel08211713363D

 40 41  0  0  1  0  0  0  0  0999 V2000
    0.0000    0.0000    0.0000 C   0  0  0  0  0  0  0  0  0  0  0  0
    1.4861    0.0000    0.0000 C   0  0  0  0  0  0  0  0  0  0  0  0
    2.1269    0.0000    1.2175 N   0  0  0  0  0  0  0  0  0  0  0  0
    3.4574    0.0319    1.2282 C   0  0  0  0  0  0  0  0  0  0  0  0
    4.2348    0.0414    0.0506 C   0  0  1  0  0  0  0  0  0  0  0  0
    3.5086    0.0289   -1.1746 C   0  0  0  0  0  0  0  0  0  0  0  0
    2.1327    0.0002   -1.1756 N   0  0  0  0  0  0  0  0  0  0  0  0
    4.0784    0.0626   -2.4070 N   0  0  0  0  0  0  0  0  0  0  0  0
    5.7054    0.1529    0.1188 C   0  0  0  0  0  0  0  0  0  0  0  0
    6.3737   -1.1541   -0.1064 N   0  0  0  0  0  0  0  0  0  0  0  0
    5.7216   -2.3293   -0.1634 C   0  0  0  0  0  0  0  0  0  0  0  0
    6.7564   -3.6099   -0.5905 S   0  0  0  0  0  0  0  0  0  0  0  0
    8.1152   -2.5463   -0.7095 C   0  0  0  0  0  0  0  0  0  0  0  0
    7.7490   -1.2538   -0.3814 C   0  0  0  0  0  0  0  0  0  0  0  0
    8.6069   -0.0567   -0.2914 C   0  0  0  0  0  0  0  0  0  0  0  0
    9.4171   -2.9719   -1.2533 C   0  0  0  0  0  0  0  0  0  0  0  0
    9.3362   -3.2758   -2.7689 C   0  0  0  0  0  0  0  0  0  0  0  0
    9.1051   -2.1134   -3.5665 O   0  0  0  0  0  0  0  0  0  0  0  0
    7.6645   -1.4822   -3.8693 P   0  0  0  0  0  0  0  0  0  0  0  0
    7.0927   -0.6762   -2.7961 O   0  0  0  0  0  0  0  0  0  0  0  0
    7.9848   -0.7550   -5.2417 O   0  0  0  0  0  0  0  0  0  0  0  0
    6.6710   -2.6496   -4.2727 O   0  0  0  0  0  0  0  0  0  0  0  0
   -0.4092   -0.5328    0.8770 H   0  0  0  0  0  0  0  0  0  0  0  0
   -0.4171   -0.4566   -0.9139 H   0  0  0  0  0  0  0  0  0  0  0  0
   -0.3876    1.0355    0.0488 H   0  0  0  0  0  0  0  0  0  0  0  0
    3.9298    0.0530    2.2228 H   0  0  0  0  0  0  0  0  0  0  0  0
    5.0572   -0.0969   -2.5417 H   0  0  0  0  0  0  0  0  0  0  0  0
    3.4914    0.0334   -3.2284 H   0  0  0  0  0  0  0  0  0  0  0  0
    6.0457    0.5479    1.1117 H   0  0  0  0  0  0  0  0  0  0  0  0
    6.0925    0.8726   -0.6550 H   0  0  0  0  0  0  0  0  0  0  0  0
    4.6491   -2.4217    0.0329 H   0  0  0  0  0  0  0  0  0  0  0  0
    8.3233    0.7177   -1.0331 H   0  0  0  0  0  0  0  0  0  0  0  0
    9.6655   -0.2857   -0.5087 H   0  0  0  0  0  0  0  0  0  0  0  0
    8.5842    0.4114    0.7066 H   0  0  0  0  0  0  0  0  0  0  0  0
    9.8256   -3.8647   -0.7275 H   0  0  0  0  0  0  0  0  0  0  0  0
   10.1916   -2.1832   -1.0913 H   0  0  0  0  0  0  0  0  0  0  0  0
    8.6575   -4.1223   -2.9848 H   0  0  0  0  0  0  0  0  0  0  0  0
   10.3543   -3.5386   -3.1550 H   0  0  0  0  0  0  0  0  0  0  0  0
    8.7799   -0.1087   -5.0941 H   0  0  0  0  0  0  0  0  0  0  0  0
    6.8599   -2.9393   -5.2465 H   0  0  0  0  0  0  0  0  0  0  0  0
  1 25  1  0  0  0  0
  1 23  1  0  0  0  0
  2  1  1  0  0  0  0
  2  3  2  0  0  0  0
  3  4  2  0  0  0  0
  4 26  1  0  0  0  0
  5  9  1  6  0  0  0
  5  4  1  0  0  0  0
  6  5  1  0  0  0  0
  7  6  2  0  0  0  0
  7  2  2  0  0  0  0
  8  6  1  0  0  0  0
  9 29  1  0  0  0  0
 10  9  1  0  0  0  0
 11 10  1  0  0  0  0
 11 31  1  0  0  0  0
 12 11  1  0  0  0  0
 13 12  1  0  0  0  0
 13 14  2  0  0  0  0
 14 15  1  0  0  0  0
 14 10  1  0  0  0  0
 15 34  1  0  0  0  0
 16 36  1  0  0  0  0
 16 35  1  0  0  0  0
 16 13  1  0  0  0  0
 17 16  1  0  0  0  0
 18 17  1  0  0  0  0
 19 18  1  0  0  0  0
 19 20  2  0  0  0  0
 21 39  1  0  0  0  0
 21 19  1  0  0  0  0
 22 19  1  0  0  0  0
 24  1  1  0  0  0  0
 27  8  1  0  0  0  0
 28  8  1  0  0  0  0
 30  9  1  0  0  0  0
 32 15  1  0  0  0  0
 33 15  1  0  0  0  0
 37 17  1  0  0  0  0
 38 17  1  0  0  0  0
 40 22  1  0  0  0  0
M  RAD  1   5   2
M  END
$$$$
