40
rmsd168.gzmat
C          0.00000        0.00000        0.00000
C          1.48650        0.00000        0.00000
N          2.12580        0.00000        1.21920
C          3.45620       -0.01900        1.23150
C          4.23600       -0.01330        0.05530
C          3.51200       -0.00250       -1.17130
N          2.13480        0.00920       -1.17430
N          4.08520       -0.01960       -2.40210
C          5.70730       -0.11290        0.12710
N          6.36650        1.20060       -0.08690
C          5.70450        2.37020       -0.14410
S          6.73040        3.66070       -0.56300
C          8.09880        2.60900       -0.67720
C          7.74220        1.31260       -0.35340
C          8.61130        0.12350       -0.26270
C          9.39890        3.04670       -1.21470
C          9.32570        3.33880       -2.73300
O          9.10470        2.17010       -3.52420
P          7.66970        1.53270       -3.84080
O          7.07500        0.75240       -2.76060
O          6.68220        2.68520       -4.29620
O          8.02300        0.77130       -5.18640
H         -0.39680       -0.85450        0.57990
H         -0.41850       -0.05810       -1.01980
H         -0.40000        0.91070        0.48140
H          3.92810       -0.04410        2.22640
H          3.50190        0.00550       -3.22600
H          5.06230        0.15340       -2.53230
H          6.10200       -0.82390       -0.65130
H          6.04860       -0.51210        1.11810
H          4.62990        2.45190        0.04690
H          8.55780       -0.37370        0.72060
H          9.67440        0.37230       -0.43390
H          8.36370       -0.63470       -1.03390
H         10.18180        2.26890       -1.04080
H          9.79340        3.94880       -0.69330
H         10.34540        3.60260       -3.11440
H          8.64570        4.18160       -2.95930
H          6.90080        2.96060       -5.26780
H          8.82800        0.14450       -5.00930
