40
rmsd66.gzmat
C          0.00000        0.00000        0.00000
C          1.48610        0.00000        0.00000
N          2.12540        0.00000        1.21870
C          3.45580       -0.02620        1.23110
C          4.23420       -0.03110        0.05410
C          3.50980       -0.01370       -1.17150
N          2.13400        0.00820       -1.17500
N          4.08530       -0.04050       -2.40250
C          5.70440       -0.14820        0.12390
N          6.38200        1.15780       -0.07170
C          5.73670        2.33520       -0.16510
S          6.79630        3.61240       -0.53720
C          8.15840        2.54890       -0.56260
C          7.76820        1.25560       -0.26780
C          8.62190        0.05650       -0.16660
C          9.49240        2.98320       -1.01400
C          9.80280        2.41760       -2.42590
O          8.72700        2.77340       -3.31010
P          7.64550        1.69800       -3.80520
O          7.01110        0.84020       -2.80440
O          6.60560        2.66390       -4.50370
O          8.45010        0.97190       -4.96300
H         -0.39510       -0.87720        0.54640
H         -0.41900       -0.01960       -1.02100
H         -0.39940        0.89120        0.51680
H          3.92740       -0.04770        2.22610
H          3.50280        0.00560       -3.22590
H          5.06310        0.13400       -2.52610
H          6.09230       -0.85390       -0.66200
H          6.03720       -0.56600        1.11040
H          4.65510        2.42920       -0.03020
H          8.45960       -0.51320        0.76410
H          9.69620        0.30880       -0.19090
H          8.45290       -0.63890       -1.01400
H         10.28840        2.64720       -0.30950
H          9.59600        4.09140       -1.03840
H         10.07840        1.34770       -2.37450
H         10.64890        2.97570       -2.89390
H          7.12930        3.36960       -5.05760
H          8.00900        0.05820       -5.14960
