40
rmsd101.gzmat
C          0.00000        0.00000        0.00000
C          1.48600        0.00000        0.00000
N          2.12730        0.00000        1.21790
C          3.45780       -0.02250        1.22770
C          4.23420       -0.02120        0.04930
C          3.50780       -0.02030       -1.17500
N          2.13210        0.00140       -1.17580
N          4.07930       -0.06350       -2.40630
C          5.70620       -0.10410        0.11340
N          6.34190        1.22570       -0.06950
C          5.66890        2.39150       -0.03090
S          6.67930        3.72070       -0.35280
C          8.05620        2.69760       -0.53960
C          7.71010        1.37240       -0.34300
C          8.58610        0.18850       -0.41370
C          9.36910        3.17930       -1.00570
C          9.43830        3.10590       -2.55790
O          8.73820        1.90350       -2.92060
P          7.47870        1.85140       -3.88790
O          6.84470        0.55340       -3.71250
O          6.58980        3.10720       -3.47370
O          8.00000        2.27980       -5.32470
H         -0.38820       -1.03320        0.08400
H         -0.41680        0.42650       -0.92850
H         -0.40880        0.56180        0.85890
H          3.93140       -0.04380        2.22200
H          3.49480       -0.04570       -3.23000
H          5.05540        0.10580       -2.54250
H          6.10930       -0.79540       -0.67640
H          6.05700       -0.51970        1.09520
H          4.59560        2.44790        0.17250
H          8.66200       -0.34810        0.54640
H          9.61600        0.45570       -0.71740
H          8.25440       -0.53870       -1.18240
H         10.18930        2.56140       -0.57140
H          9.60300        4.21450       -0.67710
H         10.47920        2.90840       -2.89850
H          9.09070        4.05070       -3.01430
H          6.30150        3.61740       -4.32040
H          8.16830        1.43250       -5.88770
