rmsd168.gzmat
 OpenBabel08211713363D

 40 41  0  0  1  0  0  0  0  0999 V2000
    0.0000    0.0000    0.0000 C   0  0  0  0  0  0  0  0  0  0  0  0
    1.4865    0.0000    0.0000 C   0  0  0  0  0  0  0  0  0  0  0  0
    2.1258    0.0000    1.2192 N   0  0  0  0  0  0  0  0  0  0  0  0
    3.4562   -0.0190    1.2315 C   0  0  0  0  0  0  0  0  0  0  0  0
    4.2360   -0.0133    0.0553 C   0  0  2  0  0  0  0  0  0  0  0  0
    3.5120   -0.0025   -1.1713 C   0  0  0  0  0  0  0  0  0  0  0  0
    2.1348    0.0092   -1.1743 N   0  0  0  0  0  0  0  0  0  0  0  0
    4.0852   -0.0196   -2.4021 N   0  0  0  0  0  0  0  0  0  0  0  0
    5.7073   -0.1129    0.1271 C   0  0  0  0  0  0  0  0  0  0  0  0
    6.3665    1.2006   -0.0869 N   0  0  0  0  0  0  0  0  0  0  0  0
    5.7045    2.3702   -0.1441 C   0  0  0  0  0  0  0  0  0  0  0  0
    6.7304    3.6607   -0.5630 S   0  0  0  0  0  0  0  0  0  0  0  0
    8.0988    2.6090   -0.6772 C   0  0  0  0  0  0  0  0  0  0  0  0
    7.7422    1.3126   -0.3534 C   0  0  0  0  0  0  0  0  0  0  0  0
    8.6113    0.1235   -0.2627 C   0  0  0  0  0  0  0  0  0  0  0  0
    9.3989    3.0467   -1.2147 C   0  0  0  0  0  0  0  0  0  0  0  0
    9.3257    3.3388   -2.7330 C   0  0  0  0  0  0  0  0  0  0  0  0
    9.1047    2.1701   -3.5242 O   0  0  0  0  0  0  0  0  0  0  0  0
    7.6697    1.5327   -3.8408 P   0  0  0  0  0  0  0  0  0  0  0  0
    7.0750    0.7524   -2.7606 O   0  0  0  0  0  0  0  0  0  0  0  0
    6.6822    2.6852   -4.2962 O   0  0  0  0  0  0  0  0  0  0  0  0
    8.0230    0.7713   -5.1864 O   0  0  0  0  0  0  0  0  0  0  0  0
   -0.3968   -0.8545    0.5799 H   0  0  0  0  0  0  0  0  0  0  0  0
   -0.4185   -0.0581   -1.0198 H   0  0  0  0  0  0  0  0  0  0  0  0
   -0.4000    0.9107    0.4814 H   0  0  0  0  0  0  0  0  0  0  0  0
    3.9281   -0.0441    2.2264 H   0  0  0  0  0  0  0  0  0  0  0  0
    3.5019    0.0055   -3.2260 H   0  0  0  0  0  0  0  0  0  0  0  0
    5.0623    0.1534   -2.5323 H   0  0  0  0  0  0  0  0  0  0  0  0
    6.1020   -0.8239   -0.6513 H   0  0  0  0  0  0  0  0  0  0  0  0
    6.0486   -0.5121    1.1181 H   0  0  0  0  0  0  0  0  0  0  0  0
    4.6299    2.4519    0.0469 H   0  0  0  0  0  0  0  0  0  0  0  0
    8.5578   -0.3737    0.7206 H   0  0  0  0  0  0  0  0  0  0  0  0
    9.6744    0.3723   -0.4339 H   0  0  0  0  0  0  0  0  0  0  0  0
    8.3637   -0.6347   -1.0339 H   0  0  0  0  0  0  0  0  0  0  0  0
   10.1818    2.2689   -1.0408 H   0  0  0  0  0  0  0  0  0  0  0  0
    9.7934    3.9488   -0.6933 H   0  0  0  0  0  0  0  0  0  0  0  0
   10.3454    3.6026   -3.1144 H   0  0  0  0  0  0  0  0  0  0  0  0
    8.6457    4.1816   -2.9593 H   0  0  0  0  0  0  0  0  0  0  0  0
    6.9008    2.9606   -5.2678 H   0  0  0  0  0  0  0  0  0  0  0  0
    8.8280    0.1445   -5.0093 H   0  0  0  0  0  0  0  0  0  0  0  0
  1  2  1  0  0  0  0
  1 25  1  0  0  0  0
  1 23  1  0  0  0  0
  2  3  2  0  0  0  0
  3  4  2  0  0  0  0
  4 26  1  0  0  0  0
  5  9  1  6  0  0  0
  5  4  1  0  0  0  0
  6  5  1  0  0  0  0
  7  6  2  0  0  0  0
  7  2  2  0  0  0  0
  8  6  1  0  0  0  0
  9 30  1  0  0  0  0
 10  9  1  0  0  0  0
 11 10  1  0  0  0  0
 11 31  1  0  0  0  0
 12 11  1  0  0  0  0
 13 12  1  0  0  0  0
 13 14  2  0  0  0  0
 14 15  1  0  0  0  0
 14 10  1  0  0  0  0
 15 32  1  0  0  0  0
 16 35  1  0  0  0  0
 16 36  1  0  0  0  0
 16 13  1  0  0  0  0
 17 16  1  0  0  0  0
 18 17  1  0  0  0  0
 19 18  1  0  0  0  0
 19 20  2  0  0  0  0
 21 19  1  0  0  0  0
 22 40  1  0  0  0  0
 22 19  1  0  0  0  0
 24  1  1  0  0  0  0
 27  8  1  0  0  0  0
 28  8  1  0  0  0  0
 29  9  1  0  0  0  0
 33 15  1  0  0  0  0
 34 15  1  0  0  0  0
 37 17  1  0  0  0  0
 38 17  1  0  0  0  0
 39 21  1  0  0  0  0
M  RAD  1   5   2
M  END
$$$$
