40
rmsd242.gzmat
C          0.00000        0.00000        0.00000
C          1.48610        0.00000        0.00000
N          2.12470        0.00000        1.21950
C          3.45490        0.02600        1.23170
C          4.23390        0.02610        0.05500
C          3.51080        0.00690       -1.17180
N          2.13450       -0.01040       -1.17410
N          4.08550        0.04300       -2.40350
C          5.70370        0.14550        0.12430
N          6.37750       -1.16800       -0.03510
C          5.73770       -2.35160        0.01950
S          6.77230       -3.64950       -0.34590
C          8.11360       -2.58610       -0.58640
C          7.74230       -1.27630       -0.34080
C          8.59360       -0.07150       -0.37970
C          9.40120       -3.04860       -1.13500
C          9.67470       -2.44100       -2.53450
O          8.71320       -2.84220       -3.51260
P          7.32260       -2.08570       -3.77310
O          7.01790       -0.91550       -2.95470
O          7.33070       -1.92990       -5.35030
O          6.24290       -3.22900       -3.56800
H         -0.39830       -0.92370        0.45710
H         -0.41790        0.08340       -1.01860
H         -0.39700        0.83900        0.60220
H          3.92620        0.05100        2.22660
H          3.49790        0.00230       -3.22500
H          5.05320       -0.17720       -2.53610
H          6.03650        0.58790        1.09990
H          6.09070        0.83110       -0.67920
H          4.67210       -2.43590        0.25330
H          8.44930        0.59150        0.49070
H          8.40370        0.53380       -1.29120
H          9.66830       -0.32300       -0.39580
H          9.45930       -4.15880       -1.21240
H         10.24540       -2.77320       -0.45930
H         10.58090       -2.91830       -2.98480
H          9.84470       -1.34980       -2.47030
H          8.15810       -1.38020       -5.63060
H          6.32300       -3.91610       -4.33800
