40
rmsd35.gzmat
C          0.00000        0.00000        0.00000
C          1.48620        0.00000        0.00000
N          2.12910        0.00000        1.21630
C          3.46000        0.01780        1.22500
C          4.23490        0.01320        0.04570
C          3.50620       -0.00070       -1.17750
N          2.13050       -0.01400       -1.17730
N          4.07860        0.01400       -2.40860
C          5.70530        0.11970        0.10690
N          6.37200       -1.19210       -0.09060
C          5.72290       -2.37100       -0.13620
S          6.77850       -3.66590       -0.45670
C          8.14140       -2.60990       -0.52250
C          7.75620       -1.30080       -0.29300
C          8.61050       -0.09900       -0.26680
C          9.48900       -3.04340       -0.93350
C          9.65930       -2.85280       -2.46920
O          8.88500       -1.69040       -2.80570
P          7.69810       -1.65970       -3.86350
O          6.93320       -0.44690       -3.61520
O          8.36010       -1.88150       -5.28880
O          6.90810       -3.02460       -3.64820
H         -0.39590       -1.00870       -0.21500
H         -0.40780        0.67220       -0.77630
H         -0.40970        0.31220        0.97840
H          3.93460        0.04130        2.21850
H          3.49680       -0.00580       -3.23330
H          5.05830       -0.13450       -2.53840
H          6.04850        0.53340        1.09210
H          6.09430        0.82610       -0.67750
H          4.64180       -2.45820        0.00800
H          8.30900        0.65120       -1.02520
H          9.66130       -0.33560       -0.52050
H          8.62090        0.40050        0.71590
H          9.71590       -4.09760       -0.66650
H         10.26990       -2.45180       -0.40080
H          9.42570       -3.78790       -3.00990
H         10.70090       -2.54900       -2.71620
H          8.56510       -0.96270       -5.70920
H          6.78470       -3.49550       -4.55590
