51
rmsd64.gzmat
Br         0.00000        0.00000        0.00000
C          1.90140        0.00000        0.00000
C          2.57160        0.00000        1.21560
C          3.96690        0.00130        1.19900
C          4.67080        0.00030       -0.00070
C          3.97180       -0.00060       -1.21590
N          4.59800        0.01750       -2.47940
C          5.97970       -0.06700       -2.68060
O          6.78440       -0.14930       -1.77930
N          6.35520       -0.15290       -4.05770
C          7.77980       -0.53010       -4.24010
C          8.78260        0.64930       -4.21150
C          8.28270        1.64620       -5.24610
H          8.20590        1.14220       -6.24710
N          9.01380        2.93830       -5.40080
C          8.04270        3.86460       -5.87450
C          6.72690        3.40460       -5.55330
C          6.86620        2.13510       -4.78080
H          6.90550        2.41860       -3.69000
C          5.90710        0.95580       -4.93730
C          5.61610        4.14210       -5.88510
C          5.84430        5.35740       -6.55170
C          7.11010        5.83220       -6.87110
C          8.23500        5.07070       -6.53190
F          4.78950        6.08540       -6.89020
C         10.34070        2.95330       -5.88800
C         10.90890        1.84740       -6.53740
C         12.24260        1.87990       -6.93320
C         12.98300        3.03020       -6.67390
C         12.44690        4.14210       -6.02370
C         11.11860        4.09620       -5.62350
F         14.25030        3.07060       -7.05900
C          2.56180       -0.00060       -1.21780
H          2.03770       -0.00190        2.16360
H          4.51610        0.00210        2.14230
H          5.76440       -0.00490        0.02010
H          3.98610       -0.04500       -3.29040
H          7.83910       -1.06010       -5.21810
H          8.05700       -1.27230       -3.45480
H          9.80680        0.29710       -4.42330
H          8.83360        1.10010       -3.19970
H          4.86520        1.25440       -4.70300
H          5.89370        0.57290       -5.98360
H          4.61020        3.80760       -5.64270
H          7.23780        6.78560       -7.38490
H          9.22990        5.42310       -6.79420
H         10.31370        0.96130       -6.74530
H         12.68950        1.02480       -7.43870
H         13.05660        5.02350       -5.82620
H         10.67810        4.93420       -5.08150
H          2.01230       -0.00230       -2.15620
