51
rmsd21.gzmat
Br         0.00000        0.00000        0.00000
C          1.90130        0.00000        0.00000
C          2.57130        0.00000        1.21580
C          3.96710        0.00190        1.20170
C          4.67160        0.00130        0.00270
C          3.97140        0.00270       -1.21250
N          4.61750       -0.04480       -2.46660
C          5.95180        0.32690       -2.66030
O          6.66530        0.73490       -1.77140
N          6.36980        0.26100       -4.02940
C          6.31260       -1.08350       -4.65110
C          7.52710       -1.99740       -4.34680
C          8.76410       -1.20010       -4.73630
H          8.69680       -0.90580       -5.81770
N         10.09890       -1.80900       -4.46900
C         10.98730       -0.70750       -4.30730
C         10.25100        0.46930       -3.95900
C          8.81480        0.08120       -3.83480
H          8.65370       -0.20200       -2.75140
C          7.65520        0.97770       -4.25810
C         10.89290        1.66020       -3.72060
C         12.29330        1.65550       -3.84180
C         13.03230        0.52750       -4.17200
C         12.36850       -0.68210       -4.41570
F         12.93770        2.79390       -3.62590
C         10.49800       -2.98070       -5.15050
C          9.86370       -3.41790       -6.32230
C         10.23020       -4.62820       -6.90370
C         11.23540       -5.37640       -6.29710
C         11.88690       -4.96460       -5.13370
C         11.50950       -3.75980       -4.55780
F         11.58740       -6.52990       -6.84640
C          2.56330        0.00150       -1.21780
H          2.03750       -0.00130        2.16430
H          4.51480        0.00210        2.14570
H          5.76470        0.00390        0.01930
H          4.03000       -0.19050       -3.28360
H          6.23590       -0.91810       -5.75200
H          5.37880       -1.60110       -4.34570
H          7.44930       -2.94490       -4.90930
H          7.55880       -2.29030       -3.28000
H          7.65230        1.93280       -3.68470
H          7.70230        1.24780       -5.33510
H         10.34890        2.56150       -3.44490
H         14.11880        0.57070       -4.24620
H         12.93370       -1.56830       -4.69310
H          9.09050       -2.81400       -6.79120
H          9.74130       -4.97380       -7.81390
H         12.66790       -5.57550       -4.68150
H         11.97670       -3.42030       -3.63190
H          2.01750        0.00810       -2.15830
