
     RDKit          3D

 51 55  0  0  0  0  0  0  0  0999 V2000
    0.3818   -1.7923   -0.1560 Br  0  0  0  0  0  0  0  0  0  0  0  0
    2.0340   -0.8426   -0.0636 C   0  0  0  0  0  0  0  0  0  0  0  0
    2.4396   -0.2808    1.1480 C   0  0  0  0  0  0  0  0  0  0  0  0
    3.6549    0.4075    1.1767 C   0  0  0  0  0  0  0  0  0  0  0  0
    4.4544    0.5428    0.0412 C   0  0  0  0  0  0  0  0  0  0  0  0
    4.0323   -0.0326   -1.1703 C   0  0  0  0  0  0  0  0  0  0  0  0
    4.7693    0.0273   -2.3627 N   0  0  0  0  0  0  0  0  0  0  0  0
    5.9648    0.6888   -2.5946 C   0  0  0  0  0  0  0  0  0  0  0  0
    6.4834    1.4388   -1.7838 O   0  0  0  0  0  0  0  0  0  0  0  0
    6.5185    0.4566   -3.8515 N   0  0  0  0  0  0  0  0  0  0  0  0
    6.3861   -0.8123   -4.5716 C   0  0  0  0  0  0  0  0  0  0  0  0
    7.5998   -1.7481   -4.3797 C   0  0  0  0  0  0  0  0  0  0  0  0
    8.8378   -0.9551   -4.7588 C   0  0  2  0  0  0  0  0  0  0  0  0
    8.7180   -0.6165   -5.8140 H   0  0  0  0  0  0  0  0  0  0  0  0
   10.1673   -1.5496   -4.6025 N   0  0  0  0  0  0  0  0  0  0  0  0
   11.0694   -0.4692   -4.4691 C   0  0  0  0  0  0  0  0  0  0  0  0
   10.3679    0.7044   -4.1089 C   0  0  0  0  0  0  0  0  0  0  0  0
    8.9342    0.3052   -3.8874 C   0  0  1  0  0  0  0  0  0  0  0  0
    8.8487   -0.0109   -2.8293 H   0  0  0  0  0  0  0  0  0  0  0  0
    7.7405    1.2098   -4.1595 C   0  0  0  0  0  0  0  0  0  0  0  0
   11.0306    1.9107   -3.9390 C   0  0  0  0  0  0  0  0  0  0  0  0
   12.4138    1.9314   -4.1508 C   0  0  0  0  0  0  0  0  0  0  0  0
   13.1194    0.7882   -4.5116 C   0  0  0  0  0  0  0  0  0  0  0  0
   12.4483   -0.4331   -4.6769 C   0  0  0  0  0  0  0  0  0  0  0  0
   13.0755    3.0927   -4.0028 F   0  0  0  0  0  0  0  0  0  0  0  0
   10.5183   -2.7828   -5.1814 C   0  0  0  0  0  0  0  0  0  0  0  0
   11.5364   -3.5601   -4.5991 C   0  0  0  0  0  0  0  0  0  0  0  0
   11.9052   -4.7850   -5.1515 C   0  0  0  0  0  0  0  0  0  0  0  0
   11.2345   -5.2514   -6.2808 C   0  0  0  0  0  0  0  0  0  0  0  0
   10.2133   -4.5124   -6.8692 C   0  0  0  0  0  0  0  0  0  0  0  0
    9.8652   -3.2744   -6.3247 C   0  0  0  0  0  0  0  0  0  0  0  0
   11.5766   -6.4377   -6.8057 F   0  0  0  0  0  0  0  0  0  0  0  0
    2.8104   -0.7296   -1.2142 C   0  0  0  0  0  0  0  0  0  0  0  0
    1.8208   -0.3777    2.0402 H   0  0  0  0  0  0  0  0  0  0  0  0
    3.9894    0.8583    2.1142 H   0  0  0  0  0  0  0  0  0  0  0  0
    5.3897    1.0943    0.0712 H   0  0  0  0  0  0  0  0  0  0  0  0
    4.3028   -0.3685   -3.1673 H   0  0  0  0  0  0  0  0  0  0  0  0
    6.2714   -0.5899   -5.6471 H   0  0  0  0  0  0  0  0  0  0  0  0
    5.4760   -1.3375   -4.2606 H   0  0  0  0  0  0  0  0  0  0  0  0
    7.4672   -2.6460   -5.0025 H   0  0  0  0  0  0  0  0  0  0  0  0
    7.6683   -2.0750   -3.3297 H   0  0  0  0  0  0  0  0  0  0  0  0
    7.7549    2.1043   -3.5284 H   0  0  0  0  0  0  0  0  0  0  0  0
    7.7151    1.5161   -5.2192 H   0  0  0  0  0  0  0  0  0  0  0  0
   10.5114    2.8265   -3.6506 H   0  0  0  0  0  0  0  0  0  0  0  0
   14.1964    0.8616   -4.6727 H   0  0  0  0  0  0  0  0  0  0  0  0
   13.0014   -1.3226   -4.9783 H   0  0  0  0  0  0  0  0  0  0  0  0
   12.0274   -3.2004   -3.6937 H   0  0  0  0  0  0  0  0  0  0  0  0
   12.6933   -5.3950   -4.7065 H   0  0  0  0  0  0  0  0  0  0  0  0
    9.7102   -4.9047   -7.7548 H   0  0  0  0  0  0  0  0  0  0  0  0
    9.0855   -2.6831   -6.8056 H   0  0  0  0  0  0  0  0  0  0  0  0
    2.4684   -1.1845   -2.1462 H   0  0  0  0  0  0  0  0  0  0  0  0
  1  2  1  0
  2  3  2  0
  2 33  1  0
  3  4  1  0
  3 34  1  0
  4  5  2  0
  4 35  1  0
  5  6  1  0
  5 36  1  0
  6  7  1  0
  6 33  2  0
  7  8  1  0
  7 37  1  0
  8  9  2  0
  8 10  1  0
 10 11  1  0
 10 20  1  0
 11 12  1  0
 11 38  1  0
 11 39  1  0
 12 13  1  0
 12 40  1  0
 12 41  1  0
 13 14  1  6
 13 15  1  0
 13 18  1  0
 15 16  1  0
 15 26  1  0
 16 17  2  0
 16 24  1  0
 17 18  1  0
 17 21  1  0
 18 19  1  1
 18 20  1  0
 20 42  1  0
 20 43  1  0
 21 22  2  0
 21 44  1  0
 22 23  1  0
 22 25  1  0
 23 24  2  0
 23 45  1  0
 24 46  1  0
 26 27  2  0
 26 31  1  0
 27 28  1  0
 27 47  1  0
 28 29  2  0
 28 48  1  0
 29 30  1  0
 29 32  1  0
 30 31  2  0
 30 49  1  0
 31 50  1  0
 33 51  1  0
M  END

