
     RDKit          3D

 51 55  0  0  0  0  0  0  0  0999 V2000
    0.7359    2.0295    0.1416 Br  0  0  0  0  0  0  0  0  0  0  0  0
    2.2818    0.9121    0.0989 C   0  0  0  0  0  0  0  0  0  0  0  0
    2.6919    0.2576    1.2615 C   0  0  0  0  0  0  0  0  0  0  0  0
    3.8277   -0.5526    1.1911 C   0  0  0  0  0  0  0  0  0  0  0  0
    4.5450   -0.7182    0.0057 C   0  0  0  0  0  0  0  0  0  0  0  0
    4.1199   -0.0485   -1.1553 C   0  0  0  0  0  0  0  0  0  0  0  0
    4.7801   -0.1297   -2.3907 N   0  0  0  0  0  0  0  0  0  0  0  0
    5.8779   -0.9102   -2.7215 C   0  0  0  0  0  0  0  0  0  0  0  0
    6.3478   -1.7533   -1.9755 O   0  0  0  0  0  0  0  0  0  0  0  0
    6.3859   -0.6778   -3.9956 N   0  0  0  0  0  0  0  0  0  0  0  0
    7.4613   -1.5659   -4.4448 C   0  0  0  0  0  0  0  0  0  0  0  0
    8.8558   -0.9136   -4.3920 C   0  0  0  0  0  0  0  0  0  0  0  0
    8.7639    0.3790   -5.1828 C   0  0  2  0  0  0  0  0  0  0  0  0
    8.4346    0.1271   -6.2173 H   0  0  0  0  0  0  0  0  0  0  0  0
    9.9145    1.2843   -5.2650 N   0  0  0  0  0  0  0  0  0  0  0  0
    9.3926    2.5684   -5.5289 C   0  0  0  0  0  0  0  0  0  0  0  0
    8.0180    2.6095   -5.1992 C   0  0  0  0  0  0  0  0  0  0  0  0
    7.6834    1.2826   -4.5728 C   0  0  1  0  0  0  0  0  0  0  0  0
    7.9048    1.3690   -3.4903 H   0  0  0  0  0  0  0  0  0  0  0  0
    6.3174    0.6145   -4.6832 C   0  0  0  0  0  0  0  0  0  0  0  0
    7.2694    3.7615   -5.3900 C   0  0  0  0  0  0  0  0  0  0  0  0
    7.9143    4.8781   -5.9337 C   0  0  0  0  0  0  0  0  0  0  0  0
    9.2641    4.8545   -6.2693 C   0  0  0  0  0  0  0  0  0  0  0  0
   10.0218    3.6906   -6.0700 C   0  0  0  0  0  0  0  0  0  0  0  0
    7.2042    6.0015   -6.1376 F   0  0  0  0  0  0  0  0  0  0  0  0
   11.1822    0.8590   -5.7046 C   0  0  0  0  0  0  0  0  0  0  0  0
   12.3338    1.5390   -5.2683 C   0  0  0  0  0  0  0  0  0  0  0  0
   13.6011    1.1416   -5.6900 C   0  0  0  0  0  0  0  0  0  0  0  0
   13.7219    0.0390   -6.5340 C   0  0  0  0  0  0  0  0  0  0  0  0
   12.6021   -0.6631   -6.9681 C   0  0  0  0  0  0  0  0  0  0  0  0
   11.3335   -0.2446   -6.5611 C   0  0  0  0  0  0  0  0  0  0  0  0
   14.9414   -0.3554   -6.9296 F   0  0  0  0  0  0  0  0  0  0  0  0
    2.9776    0.7716   -1.0992 C   0  0  0  0  0  0  0  0  0  0  0  0
    2.1368    0.3776    2.1919 H   0  0  0  0  0  0  0  0  0  0  0  0
    4.1641   -1.0770    2.0888 H   0  0  0  0  0  0  0  0  0  0  0  0
    5.4171   -1.3639   -0.0415 H   0  0  0  0  0  0  0  0  0  0  0  0
    4.3150    0.3511   -3.1483 H   0  0  0  0  0  0  0  0  0  0  0  0
    7.2425   -1.8638   -5.4859 H   0  0  0  0  0  0  0  0  0  0  0  0
    7.4317   -2.4611   -3.8158 H   0  0  0  0  0  0  0  0  0  0  0  0
    9.5997   -1.6088   -4.8094 H   0  0  0  0  0  0  0  0  0  0  0  0
    9.1394   -0.7047   -3.3487 H   0  0  0  0  0  0  0  0  0  0  0  0
    5.5474    1.2538   -4.2358 H   0  0  0  0  0  0  0  0  0  0  0  0
    6.0458    0.4621   -5.7426 H   0  0  0  0  0  0  0  0  0  0  0  0
    6.2095    3.8219   -5.1353 H   0  0  0  0  0  0  0  0  0  0  0  0
    9.7168    5.7504   -6.6980 H   0  0  0  0  0  0  0  0  0  0  0  0
   11.0743    3.6701   -6.3520 H   0  0  0  0  0  0  0  0  0  0  0  0
   12.2272    2.3768   -4.5777 H   0  0  0  0  0  0  0  0  0  0  0  0
   14.5005    1.6624   -5.3568 H   0  0  0  0  0  0  0  0  0  0  0  0
   12.7313   -1.5214   -7.6298 H   0  0  0  0  0  0  0  0  0  0  0  0
   10.4559   -0.7793   -6.9251 H   0  0  0  0  0  0  0  0  0  0  0  0
    2.6344    1.3008   -1.9908 H   0  0  0  0  0  0  0  0  0  0  0  0
  1  2  1  0
  2  3  2  0
  2 33  1  0
  3  4  1  0
  3 34  1  0
  4  5  2  0
  4 35  1  0
  5  6  1  0
  5 36  1  0
  6  7  1  0
  6 33  2  0
  7  8  1  0
  7 37  1  0
  8  9  2  0
  8 10  1  0
 10 11  1  0
 10 20  1  0
 11 12  1  0
 11 38  1  0
 11 39  1  0
 12 13  1  0
 12 40  1  0
 12 41  1  0
 13 14  1  6
 13 15  1  0
 13 18  1  0
 15 16  1  0
 15 26  1  0
 16 17  2  0
 16 24  1  0
 17 18  1  0
 17 21  1  0
 18 19  1  1
 18 20  1  0
 20 42  1  0
 20 43  1  0
 21 22  2  0
 21 44  1  0
 22 23  1  0
 22 25  1  0
 23 24  2  0
 23 45  1  0
 24 46  1  0
 26 27  2  0
 26 31  1  0
 27 28  1  0
 27 47  1  0
 28 29  2  0
 28 48  1  0
 29 30  1  0
 29 32  1  0
 30 31  2  0
 30 49  1  0
 31 50  1  0
 33 51  1  0
M  END

