51
rmsd45.gzmat
Br         0.00000        0.00000        0.00000
C          1.90100        0.00000        0.00000
C          2.57350        0.00000        1.21430
C          3.96910       -0.00810        1.19800
C          4.67090       -0.01250       -0.00250
C          3.96770       -0.01170       -1.21570
N          4.61220        0.02440       -2.47040
C          5.93490       -0.37800       -2.67060
O          6.66370       -0.76690       -1.78710
N          6.30690       -0.35350       -4.05900
C          7.45580       -1.24920       -4.34630
C          8.85450       -0.64370       -4.07800
C          8.88730        0.66760       -4.84710
H          8.66370        0.47350       -5.93090
N         10.10740        1.51880       -4.74200
C          9.65570        2.85010       -4.95960
C          8.25370        2.94420       -4.69150
C          7.78700        1.60230       -4.23370
H          7.86820        1.59120       -3.10920
C          6.43250        1.01500       -4.62610
C          7.59060        4.14290       -4.79870
C          8.35760        5.25310       -5.18960
C          9.71920        5.19050       -5.45660
C         10.38590        3.96460       -5.34420
F          7.73990        6.41990       -5.30870
C         11.33610        1.06340       -5.27370
C         11.40540        0.00980       -6.19690
C         12.64250       -0.45900       -6.62860
C         13.79200        0.14580       -6.12730
C         13.75370        1.19340       -5.20660
C         12.51510        1.64830       -4.77600
F         14.97210       -0.29410       -6.53960
C          2.56020       -0.00430       -1.21910
H          2.04110        0.00690        2.16350
H          4.51850       -0.01030        2.14120
H          5.76380       -0.01980        0.01010
H          4.02630        0.18100       -3.28860
H          7.36320       -1.53730       -5.41860
H          7.33490       -2.18330       -3.75040
H          9.65180       -1.33820       -4.39260
H          9.01440       -0.48660       -2.99110
H          5.59840        1.65710       -4.27300
H          6.32280        0.93490       -5.73110
H          6.52700        4.23360       -4.59110
H         10.27300        6.08050       -5.75540
H         11.44830        3.89840       -5.56680
H         10.49770       -0.44290       -6.58900
H         12.70400       -1.27710       -7.34520
H         14.67170        1.64010       -4.82600
H         12.44800        2.44380       -4.03250
H          2.01180       -0.00800       -2.15830
