51
rmsd46.gzmat
Br         0.00000        0.00000        0.00000
C          1.90110        0.00000        0.00000
C          2.57280        0.00000        1.21480
C          3.96840       -0.00300        1.20020
C          4.67250       -0.01070        0.00060
C          3.97040       -0.02000       -1.21280
N          4.61350       -0.01140       -2.46920
C          5.92660       -0.44570       -2.66800
O          6.66810       -0.78670       -1.77580
N          6.26360       -0.52580       -4.06340
C          7.36880       -1.48210       -4.32290
C          8.79890       -0.91250       -4.16620
C          8.84410        0.34190       -5.02450
H          8.57320        0.08360       -6.08380
N         10.09540        1.15330       -5.02060
C          9.68400        2.48320       -5.31050
C          8.29570        2.64590       -5.00390
C          7.80190        1.35590       -4.43680
H          7.92860        1.41850       -3.31800
C          6.41320        0.79210       -4.73320
C          7.66980        3.85700       -5.17410
C          8.46000        4.91040       -5.66420
C          9.80960        4.78230       -5.96600
C         10.43830        3.54320       -5.79070
F          7.87720        6.08700       -5.84740
C         11.29100        0.61490       -5.54830
C         11.29780       -0.50840       -6.38850
C         12.50580       -1.06080       -6.80370
C         13.68910       -0.46610       -6.37410
C         13.71280        0.65350       -5.54160
C         12.50290        1.19090       -5.12490
F         14.84170       -0.98770       -6.76870
C          2.56210       -0.00700       -1.21790
H          2.03900        0.00290        2.16310
H          4.51620        0.00010        2.14420
H          5.76560       -0.01540        0.01380
H          4.02150        0.11800       -3.28770
H          7.21780       -1.85360       -5.36270
H          7.24450       -2.35970       -3.64680
H          9.55210       -1.65960       -4.47060
H          9.01930       -0.68780       -3.10230
H          5.61580        1.48810       -4.39820
H          6.25760        0.63470       -5.82460
H          6.61750        4.00080       -4.94080
H         10.38270        5.62980       -6.34280
H         11.48980        3.42430       -6.04150
H         10.36480       -0.95160       -6.72930
H         12.51890       -1.93630       -7.45160
H         14.65590        1.09130       -5.21610
H         12.48370        2.04610       -4.44800
H          2.01470       -0.01100       -2.15760
