rmsd21.gzmat
 OpenBabel08211713383D

 51 54  0  0  1  0  0  0  0  0999 V2000
    0.0000    0.0000    0.0000 Br  0  0  0  0  0  0  0  0  0  0  0  0
    1.9013    0.0000    0.0000 C   0  0  0  0  0  0  0  0  0  0  0  0
    2.5713    0.0000    1.2158 C   0  0  0  0  0  0  0  0  0  0  0  0
    3.9671    0.0019    1.2017 C   0  0  0  0  0  0  0  0  0  0  0  0
    4.6716    0.0013    0.0027 C   0  0  0  0  0  0  0  0  0  0  0  0
    3.9714    0.0027   -1.2125 C   0  0  0  0  0  0  0  0  0  0  0  0
    4.6175   -0.0448   -2.4666 N   0  0  0  0  0  0  0  0  0  0  0  0
    5.9518    0.3269   -2.6603 C   0  0  0  0  0  0  0  0  0  0  0  0
    6.6653    0.7349   -1.7714 O   0  0  0  0  0  0  0  0  0  0  0  0
    6.3698    0.2610   -4.0294 N   0  0  0  0  0  0  0  0  0  0  0  0
    6.3126   -1.0835   -4.6511 C   0  0  0  0  0  0  0  0  0  0  0  0
    7.5271   -1.9974   -4.3468 C   0  0  0  0  0  0  0  0  0  0  0  0
    8.7641   -1.2001   -4.7363 C   0  0  2  0  0  0  0  0  0  0  0  0
    8.6968   -0.9058   -5.8177 H   0  0  0  0  0  0  0  0  0  0  0  0
   10.0989   -1.8090   -4.4690 N   0  0  0  0  0  0  0  0  0  0  0  0
   10.9873   -0.7075   -4.3073 C   0  0  0  0  0  0  0  0  0  0  0  0
   10.2510    0.4693   -3.9590 C   0  0  0  0  0  0  0  0  0  0  0  0
    8.8148    0.0812   -3.8348 C   0  0  1  0  0  0  0  0  0  0  0  0
    8.6537   -0.2020   -2.7514 H   0  0  0  0  0  0  0  0  0  0  0  0
    7.6552    0.9777   -4.2581 C   0  0  0  0  0  0  0  0  0  0  0  0
   10.8929    1.6602   -3.7206 C   0  0  0  0  0  0  0  0  0  0  0  0
   12.2933    1.6555   -3.8418 C   0  0  0  0  0  0  0  0  0  0  0  0
   13.0323    0.5275   -4.1720 C   0  0  0  0  0  0  0  0  0  0  0  0
   12.3685   -0.6821   -4.4157 C   0  0  0  0  0  0  0  0  0  0  0  0
   12.9377    2.7939   -3.6259 F   0  0  0  0  0  0  0  0  0  0  0  0
   10.4980   -2.9807   -5.1505 C   0  0  0  0  0  0  0  0  0  0  0  0
    9.8637   -3.4179   -6.3223 C   0  0  0  0  0  0  0  0  0  0  0  0
   10.2302   -4.6282   -6.9037 C   0  0  0  0  0  0  0  0  0  0  0  0
   11.2354   -5.3764   -6.2971 C   0  0  0  0  0  0  0  0  0  0  0  0
   11.8869   -4.9646   -5.1337 C   0  0  0  0  0  0  0  0  0  0  0  0
   11.5095   -3.7598   -4.5578 C   0  0  0  0  0  0  0  0  0  0  0  0
   11.5874   -6.5299   -6.8464 F   0  0  0  0  0  0  0  0  0  0  0  0
    2.5633    0.0015   -1.2178 C   0  0  0  0  0  0  0  0  0  0  0  0
    2.0375   -0.0013    2.1643 H   0  0  0  0  0  0  0  0  0  0  0  0
    4.5148    0.0021    2.1457 H   0  0  0  0  0  0  0  0  0  0  0  0
    5.7647    0.0039    0.0193 H   0  0  0  0  0  0  0  0  0  0  0  0
    4.0300   -0.1905   -3.2836 H   0  0  0  0  0  0  0  0  0  0  0  0
    6.2359   -0.9181   -5.7520 H   0  0  0  0  0  0  0  0  0  0  0  0
    5.3788   -1.6011   -4.3457 H   0  0  0  0  0  0  0  0  0  0  0  0
    7.4493   -2.9449   -4.9093 H   0  0  0  0  0  0  0  0  0  0  0  0
    7.5588   -2.2903   -3.2800 H   0  0  0  0  0  0  0  0  0  0  0  0
    7.6523    1.9328   -3.6847 H   0  0  0  0  0  0  0  0  0  0  0  0
    7.7023    1.2478   -5.3351 H   0  0  0  0  0  0  0  0  0  0  0  0
   10.3489    2.5615   -3.4449 H   0  0  0  0  0  0  0  0  0  0  0  0
   14.1188    0.5707   -4.2462 H   0  0  0  0  0  0  0  0  0  0  0  0
   12.9337   -1.5683   -4.6931 H   0  0  0  0  0  0  0  0  0  0  0  0
    9.0905   -2.8140   -6.7912 H   0  0  0  0  0  0  0  0  0  0  0  0
    9.7413   -4.9738   -7.8139 H   0  0  0  0  0  0  0  0  0  0  0  0
   12.6679   -5.5755   -4.6815 H   0  0  0  0  0  0  0  0  0  0  0  0
   11.9767   -3.4203   -3.6319 H   0  0  0  0  0  0  0  0  0  0  0  0
    2.0175    0.0081   -2.1583 H   0  0  0  0  0  0  0  0  0  0  0  0
  2  1  1  0  0  0  0
  2  3  2  0  0  0  0
  3 34  1  0  0  0  0
  4  3  1  0  0  0  0
  4 35  1  0  0  0  0
  5 36  1  0  0  0  0
  5  4  2  0  0  0  0
  6  5  1  0  0  0  0
  7  6  1  0  0  0  0
  8  7  1  0  0  0  0
  8  9  2  0  0  0  0
 10  8  1  0  0  0  0
 11 12  1  0  0  0  0
 11 39  1  0  0  0  0
 11 10  1  0  0  0  0
 12 41  1  0  0  0  0
 13 15  1  0  0  0  0
 13 12  1  0  0  0  0
 13 18  1  0  0  0  0
 13 14  1  6  0  0  0
 15 16  1  0  0  0  0
 16 17  1  0  0  0  0
 17 18  1  0  0  0  0
 17 21  2  0  0  0  0
 18 19  1  1  0  0  0
 20 10  1  0  0  0  0
 20 18  1  0  0  0  0
 20 42  1  0  0  0  0
 21 44  1  0  0  0  0
 22 21  1  0  0  0  0
 22 25  1  0  0  0  0
 23 22  2  0  0  0  0
 24 16  2  0  0  0  0
 24 23  1  0  0  0  0
 26 31  2  0  0  0  0
 26 15  1  0  0  0  0
 27 26  1  0  0  0  0
 28 27  2  0  0  0  0
 28 29  1  0  0  0  0
 29 30  2  0  0  0  0
 30 49  1  0  0  0  0
 30 31  1  0  0  0  0
 31 50  1  0  0  0  0
 32 29  1  0  0  0  0
 33  6  2  0  0  0  0
 33  2  1  0  0  0  0
 37  7  1  0  0  0  0
 40 12  1  0  0  0  0
 43 20  1  0  0  0  0
 45 23  1  0  0  0  0
 46 24  1  0  0  0  0
 47 27  1  0  0  0  0
 48 28  1  0  0  0  0
 51 33  1  0  0  0  0
M  RAD  2  11   2  38   2
M  END
$$$$
