51
rmsd11.gzmat
Br         0.00000        0.00000        0.00000
C          1.90110        0.00000        0.00000
C          2.57130        0.00000        1.21560
C          3.96690       -0.00210        1.20190
C          4.67110       -0.00460        0.00270
C          3.97050       -0.00100       -1.21220
N          4.61600       -0.04650       -2.46620
C          5.95070        0.31850       -2.66330
O          6.67460        0.71410       -1.77810
N          6.34780        0.25010       -4.04090
C          6.35550       -1.11500       -4.62060
C          7.62920       -1.94840       -4.32550
C          8.80480       -1.09060       -4.77330
H          8.68380       -0.82630       -5.85790
N         10.18420       -1.60750       -4.54140
C         11.00520       -0.44830       -4.43270
C         10.20800        0.68300       -4.07050
C          8.80330        0.21020       -3.89860
H          8.68730       -0.05990       -2.80630
C          7.58550        1.03160       -4.30890
C         10.77920        1.91450       -3.86080
C         12.17130        1.99950       -4.03430
C         12.96810        0.92080       -4.39420
C         12.37550       -0.33180       -4.60380
F         12.74720        3.17830       -3.84370
C         10.63960       -2.76780       -5.20590
C         11.73260       -3.44990       -4.63770
C         12.18290       -4.63490       -5.20200
C         11.52060       -5.12710       -6.32740
C         10.43200       -4.47950       -6.90460
C          9.99270       -3.28720       -6.33630
F         11.94620       -6.26010       -6.86710
C          2.56220        0.00080       -1.21810
H          2.03660        0.00240        2.16340
H          4.51480       -0.00340        2.14590
H          5.76400       -0.00430        0.01870
H          4.02870       -0.19430       -3.28370
H          6.23860       -0.98840       -5.72300
H          5.46190       -1.67450       -4.27020
H          7.59250       -2.91550       -4.85690
H          7.70470       -2.20690       -3.25200
H          7.54100        1.99540       -3.75260
H          7.59460        1.28550       -5.39120
H         10.18780        2.77960       -3.56790
H         14.04460        1.03600       -4.51930
H         12.98440       -1.17990       -4.90710
H         12.20650       -3.05210       -3.73880
H         13.02850       -5.16990       -4.77080
H          9.93510       -4.88830       -7.78340
H          9.15370       -2.76030       -6.78370
H          2.01510        0.00990       -2.15800
