rmsd6.gzmat
 OpenBabel08211713383D

 51 55  0  0  1  0  0  0  0  0999 V2000
    0.0000    0.0000    0.0000 Br  0  0  0  0  0  0  0  0  0  0  0  0
    1.9011    0.0000    0.0000 C   0  0  0  0  0  0  0  0  0  0  0  0
    2.5743    0.0000    1.2140 C   0  0  0  0  0  0  0  0  0  0  0  0
    3.9699   -0.0019    1.1970 C   0  0  0  0  0  0  0  0  0  0  0  0
    4.6721   -0.0094   -0.0037 C   0  0  0  0  0  0  0  0  0  0  0  0
    3.9686   -0.0183   -1.2163 C   0  0  0  0  0  0  0  0  0  0  0  0
    4.6065   -0.0102   -2.4750 N   0  0  0  0  0  0  0  0  0  0  0  0
    5.9279   -0.4169   -2.6786 C   0  0  0  0  0  0  0  0  0  0  0  0
    6.6820   -0.7376   -1.7896 O   0  0  0  0  0  0  0  0  0  0  0  0
    6.2587   -0.4985   -4.0747 N   0  0  0  0  0  0  0  0  0  0  0  0
    7.3898   -1.4240   -4.3349 C   0  0  0  0  0  0  0  0  0  0  0  0
    8.8043   -0.8074   -4.2140 C   0  0  0  0  0  0  0  0  0  0  0  0
    8.7902    0.4318   -5.0953 C   0  0  2  0  0  0  0  0  0  0  0  0
    8.4921    0.1465   -6.1404 H   0  0  0  0  0  0  0  0  0  0  0  0
   10.0184    1.2763   -5.1496 N   0  0  0  0  0  0  0  0  0  0  0  0
    9.5549    2.5908   -5.4431 C   0  0  0  0  0  0  0  0  0  0  0  0
    8.1774    2.7209   -5.0822 C   0  0  0  0  0  0  0  0  0  0  0  0
    7.7355    1.4233   -4.4914 C   0  0  1  0  0  0  0  0  0  0  0  0
    7.8842    1.5009   -3.3767 H   0  0  0  0  0  0  0  0  0  0  0  0
    6.3585    0.8166   -4.7584 C   0  0  0  0  0  0  0  0  0  0  0  0
    7.5155    3.9161   -5.2308 C   0  0  0  0  0  0  0  0  0  0  0  0
    8.2556    4.9827   -5.7671 C   0  0  0  0  0  0  0  0  0  0  0  0
    9.5912    4.8823   -6.1353 C   0  0  0  0  0  0  0  0  0  0  0  0
   10.2584    3.6624   -5.9727 C   0  0  0  0  0  0  0  0  0  0  0  0
    7.6377    6.1440   -5.9310 F   0  0  0  0  0  0  0  0  0  0  0  0
   11.1928    0.7729   -5.7591 C   0  0  0  0  0  0  0  0  0  0  0  0
   12.4108    1.3901   -5.4182 C   0  0  0  0  0  0  0  0  0  0  0  0
   13.6039    0.9156   -5.9455 C   0  0  0  0  0  0  0  0  0  0  0  0
   13.5585   -0.1870   -6.7997 C   0  0  0  0  0  0  0  0  0  0  0  0
   12.3710   -0.8319   -7.1354 C   0  0  0  0  0  0  0  0  0  0  0  0
   11.1794   -0.3433   -6.6080 C   0  0  0  0  0  0  0  0  0  0  0  0
   14.6938   -0.6414   -7.3102 F   0  0  0  0  0  0  0  0  0  0  0  0
    2.5601   -0.0068   -1.2188 C   0  0  0  0  0  0  0  0  0  0  0  0
    2.0415    0.0003    2.1628 H   0  0  0  0  0  0  0  0  0  0  0  0
    4.5198    0.0010    2.1399 H   0  0  0  0  0  0  0  0  0  0  0  0
    5.7651   -0.0146    0.0092 H   0  0  0  0  0  0  0  0  0  0  0  0
    4.0083    0.1010   -3.2923 H   0  0  0  0  0  0  0  0  0  0  0  0
    7.2331   -1.8179   -5.3655 H   0  0  0  0  0  0  0  0  0  0  0  0
    7.3038   -2.2936   -3.6424 H   0  0  0  0  0  0  0  0  0  0  0  0
    9.5769   -1.5334   -4.5199 H   0  0  0  0  0  0  0  0  0  0  0  0
    9.0374   -0.5573   -3.1586 H   0  0  0  0  0  0  0  0  0  0  0  0
    5.5477    1.4938   -4.4173 H   0  0  0  0  0  0  0  0  0  0  0  0
    6.1889    0.6438   -5.8457 H   0  0  0  0  0  0  0  0  0  0  0  0
    6.4727    4.0375   -4.9474 H   0  0  0  0  0  0  0  0  0  0  0  0
   10.1233    5.7370   -6.5530 H   0  0  0  0  0  0  0  0  0  0  0  0
   11.2996    3.5671   -6.2721 H   0  0  0  0  0  0  0  0  0  0  0  0
   12.4112    2.2285   -4.7199 H   0  0  0  0  0  0  0  0  0  0  0  0
   14.5510    1.3898   -5.6901 H   0  0  0  0  0  0  0  0  0  0  0  0
   12.3683   -1.6943   -7.8007 H   0  0  0  0  0  0  0  0  0  0  0  0
   10.2424   -0.8303   -6.8691 H   0  0  0  0  0  0  0  0  0  0  0  0
    2.0109   -0.0127   -2.1576 H   0  0  0  0  0  0  0  0  0  0  0  0
  2  1  1  0  0  0  0
  2  3  2  0  0  0  0
  3 34  1  0  0  0  0
  4  3  1  0  0  0  0
  4 35  1  0  0  0  0
  5 36  1  0  0  0  0
  5  4  2  0  0  0  0
  6  5  1  0  0  0  0
  7  6  1  0  0  0  0
  8  7  1  0  0  0  0
  8  9  2  0  0  0  0
 10  8  1  0  0  0  0
 11 12  1  0  0  0  0
 11 10  1  0  0  0  0
 11 39  1  0  0  0  0
 12 41  1  0  0  0  0
 13 18  1  0  0  0  0
 13 12  1  0  0  0  0
 13 14  1  6  0  0  0
 15 13  1  0  0  0  0
 16 15  1  0  0  0  0
 16 17  2  0  0  0  0
 17 18  1  0  0  0  0
 18 19  1  1  0  0  0
 20 18  1  0  0  0  0
 20 42  1  0  0  0  0
 20 10  1  0  0  0  0
 21 17  1  0  0  0  0
 21 44  1  0  0  0  0
 22 21  2  0  0  0  0
 23 24  2  0  0  0  0
 23 22  1  0  0  0  0
 24 16  1  0  0  0  0
 25 22  1  0  0  0  0
 26 27  1  0  0  0  0
 26 15  1  0  0  0  0
 27 47  1  0  0  0  0
 28 48  1  0  0  0  0
 28 27  2  0  0  0  0
 29 28  1  0  0  0  0
 30 29  2  0  0  0  0
 30 31  1  0  0  0  0
 31 26  2  0  0  0  0
 32 29  1  0  0  0  0
 33  6  2  0  0  0  0
 33  2  1  0  0  0  0
 37  7  1  0  0  0  0
 38 11  1  0  0  0  0
 40 12  1  0  0  0  0
 43 20  1  0  0  0  0
 45 23  1  0  0  0  0
 46 24  1  0  0  0  0
 49 30  1  0  0  0  0
 50 31  1  0  0  0  0
 51 33  1  0  0  0  0
M  END
$$$$
