51

Br         0.38180       -1.79230       -0.15600
C          2.03400       -0.84260       -0.06360
C          2.43960       -0.28080        1.14800
C          3.65490        0.40750        1.17670
C          4.45440        0.54280        0.04120
C          4.03230       -0.03260       -1.17030
N          4.76930        0.02730       -2.36270
C          5.96480        0.68880       -2.59460
O          6.48340        1.43880       -1.78380
N          6.51850        0.45660       -3.85150
C          6.38610       -0.81230       -4.57160
C          7.59980       -1.74810       -4.37970
C          8.83780       -0.95510       -4.75880
H          8.71800       -0.61650       -5.81400
N         10.16730       -1.54960       -4.60250
C         11.06940       -0.46920       -4.46910
C         10.36790        0.70440       -4.10890
C          8.93420        0.30520       -3.88740
H          8.84870       -0.01090       -2.82930
C          7.74050        1.20980       -4.15950
C         11.03060        1.91070       -3.93900
C         12.41380        1.93140       -4.15080
C         13.11940        0.78820       -4.51160
C         12.44830       -0.43310       -4.67690
F         13.07550        3.09270       -4.00280
C         10.51830       -2.78280       -5.18140
C         11.53640       -3.56010       -4.59910
C         11.90520       -4.78500       -5.15150
C         11.23450       -5.25140       -6.28080
C         10.21330       -4.51240       -6.86920
C          9.86520       -3.27440       -6.32470
F         11.57660       -6.43770       -6.80570
C          2.81040       -0.72960       -1.21420
H          1.82080       -0.37770        2.04020
H          3.98940        0.85830        2.11420
H          5.38970        1.09430        0.07120
H          4.30280       -0.36850       -3.16730
H          6.27140       -0.58990       -5.64710
H          5.47600       -1.33750       -4.26060
H          7.46720       -2.64600       -5.00250
H          7.66830       -2.07500       -3.32970
H          7.75490        2.10430       -3.52840
H          7.71510        1.51610       -5.21920
H         10.51140        2.82650       -3.65060
H         14.19640        0.86160       -4.67270
H         13.00140       -1.32260       -4.97830
H         12.02740       -3.20040       -3.69370
H         12.69330       -5.39500       -4.70650
H          9.71020       -4.90470       -7.75480
H          9.08550       -2.68310       -6.80560
H          2.46840       -1.18450       -2.14620
