51

Br         0.73590        2.02950        0.14160
C          2.28180        0.91210        0.09890
C          2.69190        0.25760        1.26150
C          3.82770       -0.55260        1.19110
C          4.54500       -0.71820        0.00570
C          4.11990       -0.04850       -1.15530
N          4.78010       -0.12970       -2.39070
C          5.87790       -0.91020       -2.72150
O          6.34780       -1.75330       -1.97550
N          6.38590       -0.67780       -3.99560
C          7.46130       -1.56590       -4.44480
C          8.85580       -0.91360       -4.39200
C          8.76390        0.37900       -5.18280
H          8.43460        0.12710       -6.21730
N          9.91450        1.28430       -5.26500
C          9.39260        2.56840       -5.52890
C          8.01800        2.60950       -5.19920
C          7.68340        1.28260       -4.57280
H          7.90480        1.36900       -3.49030
C          6.31740        0.61450       -4.68320
C          7.26940        3.76150       -5.39000
C          7.91430        4.87810       -5.93370
C          9.26410        4.85450       -6.26930
C         10.02180        3.69060       -6.07000
F          7.20420        6.00150       -6.13760
C         11.18220        0.85900       -5.70460
C         12.33380        1.53900       -5.26830
C         13.60110        1.14160       -5.69000
C         13.72190        0.03900       -6.53400
C         12.60210       -0.66310       -6.96810
C         11.33350       -0.24460       -6.56110
F         14.94140       -0.35540       -6.92960
C          2.97760        0.77160       -1.09920
H          2.13680        0.37760        2.19190
H          4.16410       -1.07700        2.08880
H          5.41710       -1.36390       -0.04150
H          4.31500        0.35110       -3.14830
H          7.24250       -1.86380       -5.48590
H          7.43170       -2.46110       -3.81580
H          9.59970       -1.60880       -4.80940
H          9.13940       -0.70470       -3.34870
H          5.54740        1.25380       -4.23580
H          6.04580        0.46210       -5.74260
H          6.20950        3.82190       -5.13530
H          9.71680        5.75040       -6.69800
H         11.07430        3.67010       -6.35200
H         12.22720        2.37680       -4.57770
H         14.50050        1.66240       -5.35680
H         12.73130       -1.52140       -7.62980
H         10.45590       -0.77930       -6.92510
H          2.63440        1.30080       -1.99080
