rmsd45.gzmat
 OpenBabel08211713383D

 51 55  0  0  1  0  0  0  0  0999 V2000
    0.0000    0.0000    0.0000 Br  0  0  0  0  0  0  0  0  0  0  0  0
    1.9010    0.0000    0.0000 C   0  0  0  0  0  0  0  0  0  0  0  0
    2.5735    0.0000    1.2143 C   0  0  0  0  0  0  0  0  0  0  0  0
    3.9691   -0.0081    1.1980 C   0  0  0  0  0  0  0  0  0  0  0  0
    4.6709   -0.0125   -0.0025 C   0  0  0  0  0  0  0  0  0  0  0  0
    3.9677   -0.0117   -1.2157 C   0  0  0  0  0  0  0  0  0  0  0  0
    4.6122    0.0244   -2.4704 N   0  0  0  0  0  0  0  0  0  0  0  0
    5.9349   -0.3780   -2.6706 C   0  0  0  0  0  0  0  0  0  0  0  0
    6.6637   -0.7669   -1.7871 O   0  0  0  0  0  0  0  0  0  0  0  0
    6.3069   -0.3535   -4.0590 N   0  0  0  0  0  0  0  0  0  0  0  0
    7.4558   -1.2492   -4.3463 C   0  0  0  0  0  0  0  0  0  0  0  0
    8.8545   -0.6437   -4.0780 C   0  0  0  0  0  0  0  0  0  0  0  0
    8.8873    0.6676   -4.8471 C   0  0  2  0  0  0  0  0  0  0  0  0
    8.6637    0.4735   -5.9309 H   0  0  0  0  0  0  0  0  0  0  0  0
   10.1074    1.5188   -4.7420 N   0  0  0  0  0  0  0  0  0  0  0  0
    9.6557    2.8501   -4.9596 C   0  0  0  0  0  0  0  0  0  0  0  0
    8.2537    2.9442   -4.6915 C   0  0  0  0  0  0  0  0  0  0  0  0
    7.7870    1.6023   -4.2337 C   0  0  1  0  0  0  0  0  0  0  0  0
    7.8682    1.5912   -3.1092 H   0  0  0  0  0  0  0  0  0  0  0  0
    6.4325    1.0150   -4.6261 C   0  0  0  0  0  0  0  0  0  0  0  0
    7.5906    4.1429   -4.7987 C   0  0  0  0  0  0  0  0  0  0  0  0
    8.3576    5.2531   -5.1896 C   0  0  0  0  0  0  0  0  0  0  0  0
    9.7192    5.1905   -5.4566 C   0  0  0  0  0  0  0  0  0  0  0  0
   10.3859    3.9646   -5.3442 C   0  0  0  0  0  0  0  0  0  0  0  0
    7.7399    6.4199   -5.3087 F   0  0  0  0  0  0  0  0  0  0  0  0
   11.3361    1.0634   -5.2737 C   0  0  0  0  0  0  0  0  0  0  0  0
   11.4054    0.0098   -6.1969 C   0  0  0  0  0  0  0  0  0  0  0  0
   12.6425   -0.4590   -6.6286 C   0  0  0  0  0  0  0  0  0  0  0  0
   13.7920    0.1458   -6.1273 C   0  0  0  0  0  0  0  0  0  0  0  0
   13.7537    1.1934   -5.2066 C   0  0  0  0  0  0  0  0  0  0  0  0
   12.5151    1.6483   -4.7760 C   0  0  0  0  0  0  0  0  0  0  0  0
   14.9721   -0.2941   -6.5396 F   0  0  0  0  0  0  0  0  0  0  0  0
    2.5602   -0.0043   -1.2191 C   0  0  0  0  0  0  0  0  0  0  0  0
    2.0411    0.0069    2.1635 H   0  0  0  0  0  0  0  0  0  0  0  0
    4.5185   -0.0103    2.1412 H   0  0  0  0  0  0  0  0  0  0  0  0
    5.7638   -0.0198    0.0101 H   0  0  0  0  0  0  0  0  0  0  0  0
    4.0263    0.1810   -3.2886 H   0  0  0  0  0  0  0  0  0  0  0  0
    7.3632   -1.5373   -5.4186 H   0  0  0  0  0  0  0  0  0  0  0  0
    7.3349   -2.1833   -3.7504 H   0  0  0  0  0  0  0  0  0  0  0  0
    9.6518   -1.3382   -4.3926 H   0  0  0  0  0  0  0  0  0  0  0  0
    9.0144   -0.4866   -2.9911 H   0  0  0  0  0  0  0  0  0  0  0  0
    5.5984    1.6571   -4.2730 H   0  0  0  0  0  0  0  0  0  0  0  0
    6.3228    0.9349   -5.7311 H   0  0  0  0  0  0  0  0  0  0  0  0
    6.5270    4.2336   -4.5911 H   0  0  0  0  0  0  0  0  0  0  0  0
   10.2730    6.0805   -5.7554 H   0  0  0  0  0  0  0  0  0  0  0  0
   11.4483    3.8984   -5.5668 H   0  0  0  0  0  0  0  0  0  0  0  0
   10.4977   -0.4429   -6.5890 H   0  0  0  0  0  0  0  0  0  0  0  0
   12.7040   -1.2771   -7.3452 H   0  0  0  0  0  0  0  0  0  0  0  0
   14.6717    1.6401   -4.8260 H   0  0  0  0  0  0  0  0  0  0  0  0
   12.4480    2.4438   -4.0325 H   0  0  0  0  0  0  0  0  0  0  0  0
    2.0118   -0.0080   -2.1583 H   0  0  0  0  0  0  0  0  0  0  0  0
  2  1  1  0  0  0  0
  2  3  2  0  0  0  0
  3 34  1  0  0  0  0
  4  3  1  0  0  0  0
  4 35  1  0  0  0  0
  5 36  1  0  0  0  0
  5  4  2  0  0  0  0
  6  5  1  0  0  0  0
  7  6  1  0  0  0  0
  8  7  1  0  0  0  0
  8  9  2  0  0  0  0
 10  8  1  0  0  0  0
 11 12  1  0  0  0  0
 11 10  1  0  0  0  0
 11 39  1  0  0  0  0
 12 41  1  0  0  0  0
 13 15  1  0  0  0  0
 13 18  1  0  0  0  0
 13 12  1  0  0  0  0
 13 14  1  6  0  0  0
 16 15  1  0  0  0  0
 16 17  2  0  0  0  0
 17 18  1  0  0  0  0
 18 19  1  1  0  0  0
 20 42  1  0  0  0  0
 20 18  1  0  0  0  0
 20 10  1  0  0  0  0
 21 17  1  0  0  0  0
 21 44  1  0  0  0  0
 22 21  2  0  0  0  0
 23 24  2  0  0  0  0
 23 22  1  0  0  0  0
 24 16  1  0  0  0  0
 25 22  1  0  0  0  0
 26 31  2  0  0  0  0
 26 15  1  0  0  0  0
 27 26  1  0  0  0  0
 28 27  2  0  0  0  0
 28 29  1  0  0  0  0
 29 30  2  0  0  0  0
 30 49  1  0  0  0  0
 30 31  1  0  0  0  0
 31 50  1  0  0  0  0
 32 29  1  0  0  0  0
 33  6  2  0  0  0  0
 33  2  1  0  0  0  0
 37  7  1  0  0  0  0
 38 11  1  0  0  0  0
 40 12  1  0  0  0  0
 43 20  1  0  0  0  0
 45 23  1  0  0  0  0
 46 24  1  0  0  0  0
 47 27  1  0  0  0  0
 48 28  1  0  0  0  0
 51 33  1  0  0  0  0
M  END
$$$$
