rmsd25.gzmat
 OpenBabel08211713393D

 39 41  0  0  0  0  0  0  0  0999 V2000
    0.0000    0.0000    0.0000 N   0  0  0  0  0  0  0  0  0  0  0  0
    1.3900    0.0000    0.0000 C   0  0  0  0  0  0  0  0  0  0  0  0
    2.2124    0.0000    1.0753 C   0  0  0  0  0  0  0  0  0  0  0  0
    1.9505   -0.1831    2.4886 C   0  0  0  0  0  0  0  0  0  0  0  0
    0.7457   -0.6367    3.0459 C   0  0  0  0  0  0  0  0  0  0  0  0
   -0.4601   -0.8159    2.2355 C   0  0  0  0  0  0  0  0  0  0  0  0
   -1.2288   -1.7426    2.3083 O   0  0  0  0  0  0  0  0  0  0  0  0
   -0.7217    0.3076    1.2246 C   0  0  0  0  0  0  0  0  0  0  0  0
    0.6353   -0.8974    4.4182 C   0  0  0  0  0  0  0  0  0  0  0  0
    1.7083   -0.6649    5.2644 C   0  0  0  0  0  0  0  0  0  0  0  0
    2.9100   -0.1872    4.7311 C   0  0  0  0  0  0  0  0  0  0  0  0
    3.0311    0.0416    3.3699 C   0  0  0  0  0  0  0  0  0  0  0  0
   -0.6718   -0.6055   -1.1170 C   0  0  0  0  0  0  0  0  0  0  0  0
   -0.2981   -0.3520   -2.2392 O   0  0  0  0  0  0  0  0  0  0  0  0
   -1.7237   -1.4367   -0.7828 N   0  0  0  0  0  0  0  0  0  0  0  0
   -2.6297   -1.9601   -1.7439 C   0  0  0  0  0  0  0  0  0  0  0  0
   -2.2940   -2.1213   -3.0902 C   0  0  0  0  0  0  0  0  0  0  0  0
   -3.2316   -2.6421   -3.9803 C   0  0  0  0  0  0  0  0  0  0  0  0
   -4.4932   -2.9958   -3.5086 C   0  0  0  0  0  0  0  0  0  0  0  0
   -4.8381   -2.8515   -2.1538 C   0  0  0  0  0  0  0  0  0  0  0  0
   -3.9043   -2.3338   -1.2744 C   0  0  0  0  0  0  0  0  0  0  0  0
   -5.5113   -3.5006   -4.2569 O   0  0  0  0  0  0  0  0  0  0  0  0
   -5.2618   -3.6905   -5.6425 C   0  0  0  0  0  0  0  0  0  0  0  0
    1.8155    0.0191   -1.0240 H   0  0  0  0  0  0  0  0  0  0  0  0
    3.2830    0.1150    0.8471 H   0  0  0  0  0  0  0  0  0  0  0  0
   -1.8114    0.4363    1.0340 H   0  0  0  0  0  0  0  0  0  0  0  0
   -0.3677    1.2897    1.6256 H   0  0  0  0  0  0  0  0  0  0  0  0
   -0.3048   -1.2886    4.8139 H   0  0  0  0  0  0  0  0  0  0  0  0
    1.6225   -0.8560    6.3312 H   0  0  0  0  0  0  0  0  0  0  0  0
    3.7567   -0.0040    5.3924 H   0  0  0  0  0  0  0  0  0  0  0  0
    3.9781    0.4017    2.9694 H   0  0  0  0  0  0  0  0  0  0  0  0
   -1.8956   -1.6818    0.1961 H   0  0  0  0  0  0  0  0  0  0  0  0
   -1.3032   -1.8426   -3.4593 H   0  0  0  0  0  0  0  0  0  0  0  0
   -2.9630   -2.7634   -5.0250 H   0  0  0  0  0  0  0  0  0  0  0  0
   -5.8309   -3.1443   -1.8186 H   0  0  0  0  0  0  0  0  0  0  0  0
   -4.1589   -2.2156   -0.2215 H   0  0  0  0  0  0  0  0  0  0  0  0
   -6.2306   -4.0629   -6.0030 H   0  0  0  0  0  0  0  0  0  0  0  0
   -4.4811   -4.4416   -5.7975 H   0  0  0  0  0  0  0  0  0  0  0  0
   -5.0119   -2.7440   -6.1323 H   0  0  0  0  0  0  0  0  0  0  0  0
  1  8  1  0  0  0  0
  2  1  1  0  0  0  0
  2  3  2  0  0  0  0
  3  4  1  0  0  0  0
  4  5  2  0  0  0  0
  4 12  1  0  0  0  0
  5  9  1  0  0  0  0
  6  7  2  0  0  0  0
  6  5  1  0  0  0  0
  8 27  1  0  0  0  0
  8  6  1  0  0  0  0
  9 28  1  0  0  0  0
  9 10  2  0  0  0  0
 10 29  1  0  0  0  0
 11 10  1  0  0  0  0
 11 30  1  0  0  0  0
 12 11  2  0  0  0  0
 13 15  1  0  0  0  0
 13  1  1  0  0  0  0
 14 13  2  0  0  0  0
 15 32  1  0  0  0  0
 16 21  1  0  0  0  0
 16 15  1  0  0  0  0
 17 16  2  0  0  0  0
 18 19  2  0  0  0  0
 18 17  1  0  0  0  0
 19 20  1  0  0  0  0
 20 35  1  0  0  0  0
 20 21  2  0  0  0  0
 21 36  1  0  0  0  0
 22 19  1  0  0  0  0
 23 22  1  0  0  0  0
 24  2  1  0  0  0  0
 25  3  1  0  0  0  0
 26  8  1  0  0  0  0
 31 12  1  0  0  0  0
 33 17  1  0  0  0  0
 34 18  1  0  0  0  0
 37 23  1  0  0  0  0
 38 23  1  0  0  0  0
 39 23  1  0  0  0  0
M  END
$$$$
