rmsd26.gzmat
 OpenBabel08211713393D

 39 41  0  0  0  0  0  0  0  0999 V2000
    0.0000    0.0000    0.0000 N   0  0  0  0  0  0  0  0  0  0  0  0
    1.3921    0.0000    0.0000 C   0  0  0  0  0  0  0  0  0  0  0  0
    2.2128    0.0000    1.0757 C   0  0  0  0  0  0  0  0  0  0  0  0
    1.9487   -0.1960    2.4869 C   0  0  0  0  0  0  0  0  0  0  0  0
    0.7411   -0.6462    3.0411 C   0  0  0  0  0  0  0  0  0  0  0  0
   -0.4742   -0.7938    2.2393 C   0  0  0  0  0  0  0  0  0  0  0  0
   -1.2651   -1.7010    2.3242 O   0  0  0  0  0  0  0  0  0  0  0  0
   -0.7147    0.3275    1.2232 C   0  0  0  0  0  0  0  0  0  0  0  0
    0.6368   -0.9377    4.4078 C   0  0  0  0  0  0  0  0  0  0  0  0
    1.7174   -0.7382    5.2521 C   0  0  0  0  0  0  0  0  0  0  0  0
    2.9184   -0.2529    4.7242 C   0  0  0  0  0  0  0  0  0  0  0  0
    3.0338    0.0057    3.3680 C   0  0  0  0  0  0  0  0  0  0  0  0
   -0.6564   -0.6704   -1.0872 C   0  0  0  0  0  0  0  0  0  0  0  0
   -0.2430   -0.5128   -2.2131 O   0  0  0  0  0  0  0  0  0  0  0  0
   -1.7575   -1.4326   -0.7359 N   0  0  0  0  0  0  0  0  0  0  0  0
   -2.5148   -2.1370   -1.7114 C   0  0  0  0  0  0  0  0  0  0  0  0
   -3.1109   -3.3448   -1.3298 C   0  0  0  0  0  0  0  0  0  0  0  0
   -3.9003   -4.0469   -2.2372 C   0  0  0  0  0  0  0  0  0  0  0  0
   -4.0792   -3.5279   -3.5182 C   0  0  0  0  0  0  0  0  0  0  0  0
   -3.4829   -2.3182   -3.9116 C   0  0  0  0  0  0  0  0  0  0  0  0
   -2.7001   -1.6233   -3.0055 C   0  0  0  0  0  0  0  0  0  0  0  0
   -4.8263   -4.0902   -4.5069 O   0  0  0  0  0  0  0  0  0  0  0  0
   -5.4071   -5.3582   -4.2385 C   0  0  0  0  0  0  0  0  0  0  0  0
    1.8166    0.0175   -1.0247 H   0  0  0  0  0  0  0  0  0  0  0  0
    3.2837    0.1162    0.8493 H   0  0  0  0  0  0  0  0  0  0  0  0
   -1.8016    0.4774    1.0294 H   0  0  0  0  0  0  0  0  0  0  0  0
   -0.3416    1.3048    1.6182 H   0  0  0  0  0  0  0  0  0  0  0  0
   -0.3060   -1.3262    4.8005 H   0  0  0  0  0  0  0  0  0  0  0  0
    1.6377   -0.9587    6.3137 H   0  0  0  0  0  0  0  0  0  0  0  0
    3.7688   -0.0859    5.3852 H   0  0  0  0  0  0  0  0  0  0  0  0
    3.9802    0.3701    2.9704 H   0  0  0  0  0  0  0  0  0  0  0  0
   -1.9273   -1.6700    0.2444 H   0  0  0  0  0  0  0  0  0  0  0  0
   -2.9592   -3.7427   -0.3267 H   0  0  0  0  0  0  0  0  0  0  0  0
   -4.3592   -4.9834   -1.9374 H   0  0  0  0  0  0  0  0  0  0  0  0
   -3.6413   -1.9438   -4.9211 H   0  0  0  0  0  0  0  0  0  0  0  0
   -2.2254   -0.6847   -3.3023 H   0  0  0  0  0  0  0  0  0  0  0  0
   -5.9387   -5.5714   -5.1762 H   0  0  0  0  0  0  0  0  0  0  0  0
   -6.1137   -5.3003   -3.4050 H   0  0  0  0  0  0  0  0  0  0  0  0
   -4.6334   -6.1113   -4.0582 H   0  0  0  0  0  0  0  0  0  0  0  0
  1  8  1  0  0  0  0
  2  1  1  0  0  0  0
  2  3  2  0  0  0  0
  3  4  1  0  0  0  0
  4  5  2  0  0  0  0
  4 12  1  0  0  0  0
  5  9  1  0  0  0  0
  6  7  2  0  0  0  0
  6  5  1  0  0  0  0
  8 27  1  0  0  0  0
  8  6  1  0  0  0  0
  9 28  1  0  0  0  0
  9 10  2  0  0  0  0
 10 29  1  0  0  0  0
 11 10  1  0  0  0  0
 11 30  1  0  0  0  0
 12 11  2  0  0  0  0
 13 15  1  0  0  0  0
 13  1  1  0  0  0  0
 14 13  2  0  0  0  0
 15 32  1  0  0  0  0
 16 17  1  0  0  0  0
 16 15  1  0  0  0  0
 17 33  1  0  0  0  0
 18 34  1  0  0  0  0
 18 17  2  0  0  0  0
 19 18  1  0  0  0  0
 20 19  2  0  0  0  0
 20 21  1  0  0  0  0
 21 16  2  0  0  0  0
 22 23  1  0  0  0  0
 22 19  1  0  0  0  0
 23 39  1  0  0  0  0
 23 38  1  0  0  0  0
 24  2  1  0  0  0  0
 25  3  1  0  0  0  0
 26  8  1  0  0  0  0
 31 12  1  0  0  0  0
 35 20  1  0  0  0  0
 36 21  1  0  0  0  0
 37 23  1  0  0  0  0
M  END
$$$$
