39
rmsd9.gzmat
N          0.00000        0.00000        0.00000
C          1.39180        0.00000        0.00000
C          2.21230        0.00000        1.07660
C          1.95090       -0.21170        2.48620
C          0.74180       -0.66130        3.03750
C         -0.47750       -0.79250        2.23900
O         -1.27690       -1.69280        2.32730
C         -0.71220        0.33100        1.22410
C          0.64010       -0.97600        4.39970
C          1.72570       -0.80480        5.24330
C          2.92780       -0.31750        4.71940
C          3.03950       -0.03410        3.36770
C         -0.66510       -0.66410       -1.08630
O         -0.25440       -0.51050       -2.21390
N         -1.77470       -1.41210       -0.73150
C         -2.54250       -2.10920       -1.70430
C         -3.11810       -3.33560       -1.32430
C         -3.91930       -4.02280       -2.21930
C         -4.13710       -3.48090       -3.49810
C         -3.56650       -2.27010       -3.88490
C         -2.76250       -1.58130       -2.97930
O         -4.93830       -4.26530       -4.26930
C         -5.24190       -3.79590       -5.57510
H          1.81700        0.01950       -1.02420
H          3.28220        0.12870        0.85210
H         -1.79830        0.48680        1.03050
H         -0.33290        1.30450        1.62110
H         -0.30500       -1.36370        4.78790
H          1.64920       -1.04760        6.30050
H          3.78150       -0.16810        5.38110
H          3.98720        0.33030        2.97300
H         -1.94330       -1.64880        0.24940
H         -2.93190       -3.74610       -0.33150
H         -4.37890       -4.97280       -1.95450
H         -3.73310       -1.85470       -4.87390
H         -2.30350       -0.63520       -3.27490
H         -5.89080       -4.59420       -5.96040
H         -4.33560       -3.71300       -6.18270
H         -5.78580       -2.84780       -5.53420
