39
rmsd20.gzmat
N          0.00000        0.00000        0.00000
C          1.39160        0.00000        0.00000
C          2.20900        0.00000        1.07850
C          1.94290       -0.21750        2.48630
C          0.73170       -0.66520        3.03580
C         -0.49480       -0.77260        2.24510
O         -1.32150       -1.64560        2.34880
C         -0.70950        0.34640        1.22080
C          0.63420       -0.99730        4.39430
C          1.72210       -0.83350        5.23730
C          2.92400       -0.34290        4.71550
C          3.03390       -0.04870        3.36640
C         -0.65730       -0.67130       -1.08730
O         -0.24200       -0.50810       -2.21240
N         -1.73850       -1.45480       -0.73460
C         -2.54540       -2.13460       -1.68750
C         -2.10100       -2.44680       -2.97450
C         -2.93810       -3.13460       -3.85160
C         -4.20630       -3.51500       -3.42050
C         -4.66590       -3.20750       -2.12710
C         -3.83410       -2.51660       -1.26400
O         -5.12010       -4.20910       -4.15140
C         -4.76560       -4.54750       -5.48550
H          1.81720        0.01950       -1.02410
H          3.27960        0.12940        0.85700
H         -1.79140        0.51900        1.02330
H         -0.31710        1.31710        1.61310
H         -0.31170       -1.38760        4.78080
H          1.64720       -1.08530        6.29270
H          3.77950       -0.20040        5.37490
H          3.98300        0.31470        2.97340
H         -1.95470       -1.61930        0.25190
H         -1.09930       -2.16230       -3.30790
H         -2.58580       -3.36300       -4.85400
H         -5.66560       -3.51370       -1.82570
H         -4.17790       -2.26800       -0.26060
H         -5.64840       -5.11180       -5.82020
H         -3.87530       -5.18500       -5.50900
H         -4.63150       -3.64750       -6.09660
