39
rmsd22.gzmat
N          0.00000        0.00000        0.00000
C          1.39190        0.00000        0.00000
C          2.20930        0.00000        1.07840
C          1.94260       -0.21240        2.48670
C          0.72990       -0.65280        3.03850
C         -0.49550       -0.76430        2.24610
O         -1.32080       -1.63870        2.34950
C         -0.70830        0.35390        1.21960
C          0.62930       -0.96770        4.40080
C          1.71730       -0.80140        5.24290
C          2.92320       -0.32600        4.71750
C          3.03420       -0.04170        3.36620
C         -0.66240       -0.66380       -1.08740
O         -0.23090       -0.52590       -2.21010
N         -1.77310       -1.40650       -0.73650
C         -2.60980       -2.03940       -1.69590
C         -2.16390       -2.39340       -2.97160
C         -3.03490       -3.01850       -3.86230
C         -4.34170       -3.28440       -3.46060
C         -4.79870       -2.94260       -2.17630
C         -3.93100       -2.32040       -1.29640
O         -5.30340       -3.88040       -4.21700
C         -4.92400       -4.32000       -5.51350
H          1.81780        0.01700       -1.02360
H          3.28010        0.12530        0.85620
H         -1.79050        0.53000        1.02510
H         -0.31140        1.32390        1.60930
H         -0.31740       -1.34840        4.79290
H          1.63910       -1.03990        6.30080
H          3.78090       -0.18610        5.37530
H          3.98370        0.31940        2.97260
H         -1.99240       -1.57250        0.24880
H         -1.13700       -2.18630       -3.28560
H         -2.67970       -3.28700       -4.85230
H         -5.82460       -3.17020       -1.89410
H         -4.27320       -2.04930       -0.29800
H         -5.83700       -4.81880       -5.86660
H         -4.09540       -5.03290       -5.46370
H         -4.68230       -3.46610       -6.15380
