rmsd24.gzmat
 OpenBabel08211713393D

 39 41  0  0  0  0  0  0  0  0999 V2000
    0.0000    0.0000    0.0000 N   0  0  0  0  0  0  0  0  0  0  0  0
    1.3914    0.0000    0.0000 C   0  0  0  0  0  0  0  0  0  0  0  0
    2.2144    0.0000    1.0741 C   0  0  0  0  0  0  0  0  0  0  0  0
    1.9534   -0.1729    2.4892 C   0  0  0  0  0  0  0  0  0  0  0  0
    0.7495   -0.6250    3.0499 C   0  0  0  0  0  0  0  0  0  0  0  0
   -0.4553   -0.8076    2.2394 C   0  0  0  0  0  0  0  0  0  0  0  0
   -1.2199   -1.7378    2.3112 O   0  0  0  0  0  0  0  0  0  0  0  0
   -0.7169    0.3127    1.2258 C   0  0  0  0  0  0  0  0  0  0  0  0
    0.6404   -0.8803    4.4230 C   0  0  0  0  0  0  0  0  0  0  0  0
    1.7157   -0.6501    5.2668 C   0  0  0  0  0  0  0  0  0  0  0  0
    2.9136   -0.1660    4.7314 C   0  0  0  0  0  0  0  0  0  0  0  0
    3.0318    0.0613    3.3695 C   0  0  0  0  0  0  0  0  0  0  0  0
   -0.6601   -0.6463   -1.1024 C   0  0  0  0  0  0  0  0  0  0  0  0
   -0.2703   -0.4276   -2.2264 O   0  0  0  0  0  0  0  0  0  0  0  0
   -1.7161   -1.4641   -0.7488 N   0  0  0  0  0  0  0  0  0  0  0  0
   -2.5537   -2.1279   -1.6833 C   0  0  0  0  0  0  0  0  0  0  0  0
   -2.3001   -2.1656   -3.0560 C   0  0  0  0  0  0  0  0  0  0  0  0
   -3.1719   -2.8465   -3.9048 C   0  0  0  0  0  0  0  0  0  0  0  0
   -4.2870   -3.4828   -3.3668 C   0  0  0  0  0  0  0  0  0  0  0  0
   -4.5531   -3.4536   -1.9871 C   0  0  0  0  0  0  0  0  0  0  0  0
   -3.6861   -2.7769   -1.1491 C   0  0  0  0  0  0  0  0  0  0  0  0
   -5.2269   -4.1770   -4.0652 O   0  0  0  0  0  0  0  0  0  0  0  0
   -4.9948   -4.3614   -5.4541 C   0  0  0  0  0  0  0  0  0  0  0  0
    1.8161    0.0188   -1.0246 H   0  0  0  0  0  0  0  0  0  0  0  0
    3.2854    0.1036    0.8428 H   0  0  0  0  0  0  0  0  0  0  0  0
   -1.8067    0.4448    1.0377 H   0  0  0  0  0  0  0  0  0  0  0  0
   -0.3551    1.2935    1.6228 H   0  0  0  0  0  0  0  0  0  0  0  0
   -0.3008   -1.2646    4.8228 H   0  0  0  0  0  0  0  0  0  0  0  0
    1.6328   -0.8448    6.3333 H   0  0  0  0  0  0  0  0  0  0  0  0
    3.7598    0.0259    5.3910 H   0  0  0  0  0  0  0  0  0  0  0  0
    3.9760    0.4276    2.9685 H   0  0  0  0  0  0  0  0  0  0  0  0
   -1.8771   -1.6824    0.2403 H   0  0  0  0  0  0  0  0  0  0  0  0
   -1.4236   -1.6695   -3.4823 H   0  0  0  0  0  0  0  0  0  0  0  0
   -2.9671   -2.8697   -4.9708 H   0  0  0  0  0  0  0  0  0  0  0  0
   -5.4324   -3.9647   -1.6000 H   0  0  0  0  0  0  0  0  0  0  0  0
   -3.8796   -2.7510   -0.0766 H   0  0  0  0  0  0  0  0  0  0  0  0
   -5.8580   -4.9715   -5.7542 H   0  0  0  0  0  0  0  0  0  0  0  0
   -4.0631   -4.9088   -5.6273 H   0  0  0  0  0  0  0  0  0  0  0  0
   -5.0027   -3.4026   -5.9811 H   0  0  0  0  0  0  0  0  0  0  0  0
  1  8  1  0  0  0  0
  2  1  1  0  0  0  0
  2  3  2  0  0  0  0
  3  4  1  0  0  0  0
  4  5  2  0  0  0  0
  4 12  1  0  0  0  0
  5  9  1  0  0  0  0
  6  7  2  0  0  0  0
  6  5  1  0  0  0  0
  8 27  1  0  0  0  0
  8  6  1  0  0  0  0
  9 28  1  0  0  0  0
  9 10  2  0  0  0  0
 10 29  1  0  0  0  0
 11 10  1  0  0  0  0
 11 30  1  0  0  0  0
 12 11  2  0  0  0  0
 13 15  1  0  0  0  0
 13  1  1  0  0  0  0
 14 13  2  0  0  0  0
 15 32  1  0  0  0  0
 16 21  1  0  0  0  0
 16 15  1  0  0  0  0
 17 16  2  0  0  0  0
 18 19  2  0  0  0  0
 18 17  1  0  0  0  0
 19 20  1  0  0  0  0
 20 35  1  0  0  0  0
 20 21  2  0  0  0  0
 21 36  1  0  0  0  0
 22 19  1  0  0  0  0
 23 22  1  0  0  0  0
 24  2  1  0  0  0  0
 25  3  1  0  0  0  0
 26  8  1  0  0  0  0
 31 12  1  0  0  0  0
 33 17  1  0  0  0  0
 34 18  1  0  0  0  0
 37 23  1  0  0  0  0
 38 23  1  0  0  0  0
 39 23  1  0  0  0  0
M  END
$$$$
