rmsd10.gzmat
 OpenBabel08211713393D

 39 41  0  0  0  0  0  0  0  0999 V2000
    0.0000    0.0000    0.0000 N   0  0  0  0  0  0  0  0  0  0  0  0
    1.3916    0.0000    0.0000 C   0  0  0  0  0  0  0  0  0  0  0  0
    2.2063    0.0000    1.0812 C   0  0  0  0  0  0  0  0  0  0  0  0
    1.9352   -0.2346    2.4852 C   0  0  0  0  0  0  0  0  0  0  0  0
    0.7295   -0.7155    3.0184 C   0  0  0  0  0  0  0  0  0  0  0  0
   -0.4947   -0.8160    2.2228 C   0  0  0  0  0  0  0  0  0  0  0  0
   -1.3143   -1.6986    2.3014 O   0  0  0  0  0  0  0  0  0  0  0  0
   -0.7074    0.3294    1.2276 C   0  0  0  0  0  0  0  0  0  0  0  0
    0.6313   -1.0806    4.3678 C   0  0  0  0  0  0  0  0  0  0  0  0
    1.7108   -0.9162    5.2206 C   0  0  0  0  0  0  0  0  0  0  0  0
    2.9006   -0.3760    4.7215 C   0  0  0  0  0  0  0  0  0  0  0  0
    3.0124   -0.0489    3.3797 C   0  0  0  0  0  0  0  0  0  0  0  0
   -0.6711   -0.6438   -1.0930 C   0  0  0  0  0  0  0  0  0  0  0  0
   -0.2461   -0.4993   -2.2172 O   0  0  0  0  0  0  0  0  0  0  0  0
   -1.7919   -1.3759   -0.7512 N   0  0  0  0  0  0  0  0  0  0  0  0
   -2.6587   -1.9133   -1.7434 C   0  0  0  0  0  0  0  0  0  0  0  0
   -2.1628   -2.4373   -2.9478 C   0  0  0  0  0  0  0  0  0  0  0  0
   -3.0453   -2.9489   -3.8846 C   0  0  0  0  0  0  0  0  0  0  0  0
   -4.4233   -2.9306   -3.6113 C   0  0  0  0  0  0  0  0  0  0  0  0
   -4.9231   -2.4295   -2.4102 C   0  0  0  0  0  0  0  0  0  0  0  0
   -4.0315   -1.9169   -1.4716 C   0  0  0  0  0  0  0  0  0  0  0  0
   -5.1679   -3.4560   -4.6215 O   0  0  0  0  0  0  0  0  0  0  0  0
   -6.5793   -3.3434   -4.5104 C   0  0  0  0  0  0  0  0  0  0  0  0
    1.8180    0.0234   -1.0237 H   0  0  0  0  0  0  0  0  0  0  0  0
    3.2765    0.1399    0.8655 H   0  0  0  0  0  0  0  0  0  0  0  0
   -1.7888    0.5141    1.0363 H   0  0  0  0  0  0  0  0  0  0  0  0
   -0.3067    1.2883    1.6405 H   0  0  0  0  0  0  0  0  0  0  0  0
   -0.3081   -1.4989    4.7383 H   0  0  0  0  0  0  0  0  0  0  0  0
    1.6371   -1.2034    6.2670 H   0  0  0  0  0  0  0  0  0  0  0  0
    3.7449   -0.2218    5.3941 H   0  0  0  0  0  0  0  0  0  0  0  0
    3.9502    0.3583    3.0032 H   0  0  0  0  0  0  0  0  0  0  0  0
   -2.0215   -1.5622    0.2259 H   0  0  0  0  0  0  0  0  0  0  0  0
   -1.0882   -2.4345   -3.1480 H   0  0  0  0  0  0  0  0  0  0  0  0
   -2.6886   -3.3598   -4.8270 H   0  0  0  0  0  0  0  0  0  0  0  0
   -5.9859   -2.4297   -2.1932 H   0  0  0  0  0  0  0  0  0  0  0  0
   -4.4094   -1.5157   -0.5324 H   0  0  0  0  0  0  0  0  0  0  0  0
   -6.9197   -3.7380   -5.4776 H   0  0  0  0  0  0  0  0  0  0  0  0
   -6.8863   -2.2994   -4.3953 H   0  0  0  0  0  0  0  0  0  0  0  0
   -6.9535   -3.9640   -3.6916 H   0  0  0  0  0  0  0  0  0  0  0  0
  1  8  1  0  0  0  0
  2  1  1  0  0  0  0
  2  3  2  0  0  0  0
  3  4  1  0  0  0  0
  4  5  2  0  0  0  0
  4 12  1  0  0  0  0
  5  9  1  0  0  0  0
  6  7  2  0  0  0  0
  6  5  1  0  0  0  0
  8 27  1  0  0  0  0
  8  6  1  0  0  0  0
  9 28  1  0  0  0  0
  9 10  2  0  0  0  0
 10 29  1  0  0  0  0
 11 10  1  0  0  0  0
 11 30  1  0  0  0  0
 12 11  2  0  0  0  0
 13 15  1  0  0  0  0
 13  1  1  0  0  0  0
 14 13  2  0  0  0  0
 15 32  1  0  0  0  0
 16 21  1  0  0  0  0
 16 15  1  0  0  0  0
 17 16  2  0  0  0  0
 18 19  2  0  0  0  0
 18 17  1  0  0  0  0
 19 20  1  0  0  0  0
 20 35  1  0  0  0  0
 20 21  2  0  0  0  0
 21 36  1  0  0  0  0
 22 23  1  0  0  0  0
 22 19  1  0  0  0  0
 23 38  1  0  0  0  0
 23 39  1  0  0  0  0
 24  2  1  0  0  0  0
 25  3  1  0  0  0  0
 26  8  1  0  0  0  0
 31 12  1  0  0  0  0
 33 17  1  0  0  0  0
 34 18  1  0  0  0  0
 37 23  1  0  0  0  0
M  END
$$$$
