39

N          0.19240       -0.10520       -0.06860
C          1.56230        0.06350       -0.01030
C          2.26570        0.20840        1.14230
C          1.88540       -0.08650        2.52430
C          0.61610       -0.55760        2.98340
C         -0.60810       -0.52650        2.15800
O         -1.58020       -1.24840        2.33290
C         -0.59970        0.46470        1.00670
C          0.46550       -1.02010        4.30480
C          1.51520       -0.97280        5.21130
C          2.75270       -0.46370        4.79150
C          2.92960       -0.04350        3.47980
C         -0.38280       -0.82460       -1.15070
O          0.21890       -0.96050       -2.19810
N         -1.62470       -1.32090       -0.85870
C         -2.49220       -2.01810       -1.72770
C         -2.25610       -2.19170       -3.09640
C         -3.18020       -2.88270       -3.88810
C         -4.34900       -3.41210       -3.32670
C         -4.58190       -3.23950       -1.95220
C         -3.66720       -2.55250       -1.16670
O         -5.29820       -4.09710       -4.01690
C         -5.11440       -4.30440       -5.39670
H          2.05790        0.05220       -0.98300
H          3.32550        0.43770        1.00990
H         -1.62660        0.64740        0.66900
H         -0.13810        1.42020        1.29880
H         -0.51640       -1.39810        4.59600
H          1.37780       -1.32270        6.23650
H          3.58890       -0.40830        5.49280
H          3.91130        0.31280        3.15870
H         -1.90090       -1.34820        0.12120
H         -1.34490       -1.79600       -3.53760
H         -2.96550       -3.00160       -4.94980
H         -5.49340       -3.65700       -1.52110
H         -3.85990       -2.42550       -0.09760
H         -5.98610       -4.87190       -5.74910
H         -4.19890       -4.88700       -5.60710
H         -5.05960       -3.35060       -5.95270
