rmsd22.gzmat
 OpenBabel08211713393D

 39 41  0  0  0  0  0  0  0  0999 V2000
    0.0000    0.0000    0.0000 N   0  0  0  0  0  0  0  0  0  0  0  0
    1.3919    0.0000    0.0000 C   0  0  0  0  0  0  0  0  0  0  0  0
    2.2093    0.0000    1.0784 C   0  0  0  0  0  0  0  0  0  0  0  0
    1.9426   -0.2124    2.4867 C   0  0  0  0  0  0  0  0  0  0  0  0
    0.7299   -0.6528    3.0385 C   0  0  0  0  0  0  0  0  0  0  0  0
   -0.4955   -0.7643    2.2461 C   0  0  0  0  0  0  0  0  0  0  0  0
   -1.3208   -1.6387    2.3495 O   0  0  0  0  0  0  0  0  0  0  0  0
   -0.7083    0.3539    1.2196 C   0  0  0  0  0  0  0  0  0  0  0  0
    0.6293   -0.9677    4.4008 C   0  0  0  0  0  0  0  0  0  0  0  0
    1.7173   -0.8014    5.2429 C   0  0  0  0  0  0  0  0  0  0  0  0
    2.9232   -0.3260    4.7175 C   0  0  0  0  0  0  0  0  0  0  0  0
    3.0342   -0.0417    3.3662 C   0  0  0  0  0  0  0  0  0  0  0  0
   -0.6624   -0.6638   -1.0874 C   0  0  0  0  0  0  0  0  0  0  0  0
   -0.2309   -0.5259   -2.2101 O   0  0  0  0  0  0  0  0  0  0  0  0
   -1.7731   -1.4065   -0.7365 N   0  0  0  0  0  0  0  0  0  0  0  0
   -2.6098   -2.0394   -1.6959 C   0  0  0  0  0  0  0  0  0  0  0  0
   -2.1639   -2.3934   -2.9716 C   0  0  0  0  0  0  0  0  0  0  0  0
   -3.0349   -3.0185   -3.8623 C   0  0  0  0  0  0  0  0  0  0  0  0
   -4.3417   -3.2844   -3.4606 C   0  0  0  0  0  0  0  0  0  0  0  0
   -4.7987   -2.9426   -2.1763 C   0  0  0  0  0  0  0  0  0  0  0  0
   -3.9310   -2.3204   -1.2964 C   0  0  0  0  0  0  0  0  0  0  0  0
   -5.3034   -3.8804   -4.2170 O   0  0  0  0  0  0  0  0  0  0  0  0
   -4.9240   -4.3200   -5.5135 C   0  0  0  0  0  0  0  0  0  0  0  0
    1.8178    0.0170   -1.0236 H   0  0  0  0  0  0  0  0  0  0  0  0
    3.2801    0.1253    0.8562 H   0  0  0  0  0  0  0  0  0  0  0  0
   -1.7905    0.5300    1.0251 H   0  0  0  0  0  0  0  0  0  0  0  0
   -0.3114    1.3239    1.6093 H   0  0  0  0  0  0  0  0  0  0  0  0
   -0.3174   -1.3484    4.7929 H   0  0  0  0  0  0  0  0  0  0  0  0
    1.6391   -1.0399    6.3008 H   0  0  0  0  0  0  0  0  0  0  0  0
    3.7809   -0.1861    5.3753 H   0  0  0  0  0  0  0  0  0  0  0  0
    3.9837    0.3194    2.9726 H   0  0  0  0  0  0  0  0  0  0  0  0
   -1.9924   -1.5725    0.2488 H   0  0  0  0  0  0  0  0  0  0  0  0
   -1.1370   -2.1863   -3.2856 H   0  0  0  0  0  0  0  0  0  0  0  0
   -2.6797   -3.2870   -4.8523 H   0  0  0  0  0  0  0  0  0  0  0  0
   -5.8246   -3.1702   -1.8941 H   0  0  0  0  0  0  0  0  0  0  0  0
   -4.2732   -2.0493   -0.2980 H   0  0  0  0  0  0  0  0  0  0  0  0
   -5.8370   -4.8188   -5.8666 H   0  0  0  0  0  0  0  0  0  0  0  0
   -4.0954   -5.0329   -5.4637 H   0  0  0  0  0  0  0  0  0  0  0  0
   -4.6823   -3.4661   -6.1538 H   0  0  0  0  0  0  0  0  0  0  0  0
  1  8  1  0  0  0  0
  2  1  1  0  0  0  0
  2  3  2  0  0  0  0
  3  4  1  0  0  0  0
  4  5  2  0  0  0  0
  4 12  1  0  0  0  0
  5  9  1  0  0  0  0
  6  7  2  0  0  0  0
  6  5  1  0  0  0  0
  8 27  1  0  0  0  0
  8  6  1  0  0  0  0
  9 28  1  0  0  0  0
  9 10  2  0  0  0  0
 10 29  1  0  0  0  0
 11 10  1  0  0  0  0
 11 30  1  0  0  0  0
 12 11  2  0  0  0  0
 13 15  1  0  0  0  0
 13  1  1  0  0  0  0
 14 13  2  0  0  0  0
 15 32  1  0  0  0  0
 16 21  1  0  0  0  0
 16 15  1  0  0  0  0
 17 16  2  0  0  0  0
 18 19  2  0  0  0  0
 18 17  1  0  0  0  0
 19 20  1  0  0  0  0
 20 35  1  0  0  0  0
 20 21  2  0  0  0  0
 21 36  1  0  0  0  0
 22 19  1  0  0  0  0
 23 38  1  0  0  0  0
 23 22  1  0  0  0  0
 24  2  1  0  0  0  0
 25  3  1  0  0  0  0
 26  8  1  0  0  0  0
 31 12  1  0  0  0  0
 33 17  1  0  0  0  0
 34 18  1  0  0  0  0
 37 23  1  0  0  0  0
 39 23  1  0  0  0  0
M  END
$$$$
