39
rmsd27.gzmat
N          0.00000        0.00000        0.00000
C          1.39160        0.00000        0.00000
C          2.20820        0.00000        1.07970
C          1.94050       -0.22580        2.48570
C          0.73660       -0.70840        3.02170
C         -0.48160       -0.82510        2.22010
O         -1.28420       -1.72370        2.28640
C         -0.70780        0.32140        1.22930
C          0.63570       -1.05900        4.37460
C          1.71280       -0.87910        5.22750
C          2.90290       -0.34410        4.72350
C          3.01670       -0.03020        3.37860
C         -0.66930       -0.64110       -1.09570
O         -0.24320       -0.49170       -2.21810
N         -1.80370       -1.35960       -0.75700
C         -2.59660       -2.00550       -1.74420
C         -3.23970       -3.19780       -1.39250
C         -4.07700       -3.83130       -2.30750
C         -4.25070       -3.26240       -3.56770
C         -3.59940       -2.07280       -3.93460
C         -2.77350       -1.44360       -3.01910
O         -5.04070       -3.75300       -4.56090
C         -5.70820       -4.98160       -4.31350
H          1.81840        0.02050       -1.02320
H          3.27820        0.13400        0.85990
H         -1.79120        0.49730        1.04140
H         -0.31520        1.28330        1.64200
H         -0.30240       -1.47730        4.74780
H          1.63750       -1.15220        6.27700
H          3.74700       -0.18320        5.39410
H          3.95560        0.37240        3.00050
H         -1.97850       -1.61390        0.21830
H         -3.08840       -3.63820       -0.40730
H         -4.57550       -4.75380       -2.02900
H         -3.75070       -1.66290       -4.93130
H         -2.25890       -0.51890       -3.29190
H         -6.25990       -5.13520       -5.25140
H         -6.40300       -4.89080       -3.47320
H         -4.98950       -5.79150       -4.15560
