rmsd11.gzmat
 OpenBabel08211713393D

 39 41  0  0  0  0  0  0  0  0999 V2000
    0.0000    0.0000    0.0000 N   0  0  0  0  0  0  0  0  0  0  0  0
    1.3913    0.0000    0.0000 C   0  0  0  0  0  0  0  0  0  0  0  0
    2.2140    0.0000    1.0745 C   0  0  0  0  0  0  0  0  0  0  0  0
    1.9534   -0.1780    2.4891 C   0  0  0  0  0  0  0  0  0  0  0  0
    0.7457   -0.6201    3.0501 C   0  0  0  0  0  0  0  0  0  0  0  0
   -0.4639   -0.7940    2.2439 C   0  0  0  0  0  0  0  0  0  0  0  0
   -1.2420   -1.7118    2.3295 O   0  0  0  0  0  0  0  0  0  0  0  0
   -0.7147    0.3227    1.2240 C   0  0  0  0  0  0  0  0  0  0  0  0
    0.6342   -0.8695    4.4244 C   0  0  0  0  0  0  0  0  0  0  0  0
    1.7088   -0.6376    5.2685 C   0  0  0  0  0  0  0  0  0  0  0  0
    2.9108   -0.1643    4.7328 C   0  0  0  0  0  0  0  0  0  0  0  0
    3.0346    0.0463    3.3685 C   0  0  0  0  0  0  0  0  0  0  0  0
   -0.6599   -0.6499   -1.0998 C   0  0  0  0  0  0  0  0  0  0  0  0
   -0.2691   -0.4389   -2.2250 O   0  0  0  0  0  0  0  0  0  0  0  0
   -1.7132   -1.4734   -0.7522 N   0  0  0  0  0  0  0  0  0  0  0  0
   -2.5345   -2.1275   -1.7101 C   0  0  0  0  0  0  0  0  0  0  0  0
   -2.1029   -2.3971   -3.0182 C   0  0  0  0  0  0  0  0  0  0  0  0
   -2.9412   -3.0725   -3.8904 C   0  0  0  0  0  0  0  0  0  0  0  0
   -4.2076   -3.4869   -3.4476 C   0  0  0  0  0  0  0  0  0  0  0  0
   -4.6510   -3.2139   -2.1547 C   0  0  0  0  0  0  0  0  0  0  0  0
   -3.8086   -2.5275   -1.2852 C   0  0  0  0  0  0  0  0  0  0  0  0
   -4.9097   -4.1575   -4.4013 O   0  0  0  0  0  0  0  0  0  0  0  0
   -6.1651   -4.6994   -4.0152 C   0  0  0  0  0  0  0  0  0  0  0  0
    1.8150    0.0222   -1.0247 H   0  0  0  0  0  0  0  0  0  0  0  0
    3.2839    0.1121    0.8436 H   0  0  0  0  0  0  0  0  0  0  0  0
   -1.8009    0.4681    1.0316 H   0  0  0  0  0  0  0  0  0  0  0  0
   -0.3452    1.3010    1.6206 H   0  0  0  0  0  0  0  0  0  0  0  0
   -0.3081   -1.2480    4.8279 H   0  0  0  0  0  0  0  0  0  0  0  0
    1.6231   -0.8257    6.3359 H   0  0  0  0  0  0  0  0  0  0  0  0
    3.7536    0.0326    5.3957 H   0  0  0  0  0  0  0  0  0  0  0  0
    3.9853    0.3925    2.9651 H   0  0  0  0  0  0  0  0  0  0  0  0
   -1.9034   -1.6766    0.2324 H   0  0  0  0  0  0  0  0  0  0  0  0
   -1.1118   -2.0814   -3.3569 H   0  0  0  0  0  0  0  0  0  0  0  0
   -2.6284   -3.2895   -4.9100 H   0  0  0  0  0  0  0  0  0  0  0  0
   -5.6340   -3.5227   -1.8146 H   0  0  0  0  0  0  0  0  0  0  0  0
   -4.1493   -2.3064   -0.2748 H   0  0  0  0  0  0  0  0  0  0  0  0
   -6.4741   -5.2403   -4.9200 H   0  0  0  0  0  0  0  0  0  0  0  0
   -6.8782   -3.9017   -3.7859 H   0  0  0  0  0  0  0  0  0  0  0  0
   -6.0539   -5.3925   -3.1759 H   0  0  0  0  0  0  0  0  0  0  0  0
  1  8  1  0  0  0  0
  2  1  1  0  0  0  0
  2  3  2  0  0  0  0
  3  4  1  0  0  0  0
  4  5  2  0  0  0  0
  4 12  1  0  0  0  0
  5  9  1  0  0  0  0
  6  7  2  0  0  0  0
  6  5  1  0  0  0  0
  8 27  1  0  0  0  0
  8  6  1  0  0  0  0
  9 28  1  0  0  0  0
  9 10  2  0  0  0  0
 10 29  1  0  0  0  0
 11 10  1  0  0  0  0
 11 30  1  0  0  0  0
 12 11  2  0  0  0  0
 13 15  1  0  0  0  0
 13  1  1  0  0  0  0
 14 13  2  0  0  0  0
 15 32  1  0  0  0  0
 16 21  1  0  0  0  0
 16 15  1  0  0  0  0
 17 16  2  0  0  0  0
 18 19  2  0  0  0  0
 18 17  1  0  0  0  0
 19 20  1  0  0  0  0
 20 35  1  0  0  0  0
 20 21  2  0  0  0  0
 21 36  1  0  0  0  0
 22 23  1  0  0  0  0
 22 19  1  0  0  0  0
 23 38  1  0  0  0  0
 23 39  1  0  0  0  0
 24  2  1  0  0  0  0
 25  3  1  0  0  0  0
 26  8  1  0  0  0  0
 31 12  1  0  0  0  0
 33 17  1  0  0  0  0
 34 18  1  0  0  0  0
 37 23  1  0  0  0  0
M  END
$$$$
