rmsd27.gzmat
 OpenBabel08211713393D

 39 41  0  0  0  0  0  0  0  0999 V2000
    0.0000    0.0000    0.0000 N   0  0  0  0  0  0  0  0  0  0  0  0
    1.3916    0.0000    0.0000 C   0  0  0  0  0  0  0  0  0  0  0  0
    2.2082    0.0000    1.0797 C   0  0  0  0  0  0  0  0  0  0  0  0
    1.9405   -0.2258    2.4857 C   0  0  0  0  0  0  0  0  0  0  0  0
    0.7366   -0.7084    3.0217 C   0  0  0  0  0  0  0  0  0  0  0  0
   -0.4816   -0.8251    2.2201 C   0  0  0  0  0  0  0  0  0  0  0  0
   -1.2842   -1.7237    2.2864 O   0  0  0  0  0  0  0  0  0  0  0  0
   -0.7078    0.3214    1.2293 C   0  0  0  0  0  0  0  0  0  0  0  0
    0.6357   -1.0590    4.3746 C   0  0  0  0  0  0  0  0  0  0  0  0
    1.7128   -0.8791    5.2275 C   0  0  0  0  0  0  0  0  0  0  0  0
    2.9029   -0.3441    4.7235 C   0  0  0  0  0  0  0  0  0  0  0  0
    3.0167   -0.0302    3.3786 C   0  0  0  0  0  0  0  0  0  0  0  0
   -0.6693   -0.6411   -1.0957 C   0  0  0  0  0  0  0  0  0  0  0  0
   -0.2432   -0.4917   -2.2181 O   0  0  0  0  0  0  0  0  0  0  0  0
   -1.8037   -1.3596   -0.7570 N   0  0  0  0  0  0  0  0  0  0  0  0
   -2.5966   -2.0055   -1.7442 C   0  0  0  0  0  0  0  0  0  0  0  0
   -3.2397   -3.1978   -1.3925 C   0  0  0  0  0  0  0  0  0  0  0  0
   -4.0770   -3.8313   -2.3075 C   0  0  0  0  0  0  0  0  0  0  0  0
   -4.2507   -3.2624   -3.5677 C   0  0  0  0  0  0  0  0  0  0  0  0
   -3.5994   -2.0728   -3.9346 C   0  0  0  0  0  0  0  0  0  0  0  0
   -2.7735   -1.4436   -3.0191 C   0  0  0  0  0  0  0  0  0  0  0  0
   -5.0407   -3.7530   -4.5609 O   0  0  0  0  0  0  0  0  0  0  0  0
   -5.7082   -4.9816   -4.3135 C   0  0  0  0  0  0  0  0  0  0  0  0
    1.8184    0.0205   -1.0232 H   0  0  0  0  0  0  0  0  0  0  0  0
    3.2782    0.1340    0.8599 H   0  0  0  0  0  0  0  0  0  0  0  0
   -1.7912    0.4973    1.0414 H   0  0  0  0  0  0  0  0  0  0  0  0
   -0.3152    1.2833    1.6420 H   0  0  0  0  0  0  0  0  0  0  0  0
   -0.3024   -1.4773    4.7478 H   0  0  0  0  0  0  0  0  0  0  0  0
    1.6375   -1.1522    6.2770 H   0  0  0  0  0  0  0  0  0  0  0  0
    3.7470   -0.1832    5.3941 H   0  0  0  0  0  0  0  0  0  0  0  0
    3.9556    0.3724    3.0005 H   0  0  0  0  0  0  0  0  0  0  0  0
   -1.9785   -1.6139    0.2183 H   0  0  0  0  0  0  0  0  0  0  0  0
   -3.0884   -3.6382   -0.4073 H   0  0  0  0  0  0  0  0  0  0  0  0
   -4.5755   -4.7538   -2.0290 H   0  0  0  0  0  0  0  0  0  0  0  0
   -3.7507   -1.6629   -4.9313 H   0  0  0  0  0  0  0  0  0  0  0  0
   -2.2589   -0.5189   -3.2919 H   0  0  0  0  0  0  0  0  0  0  0  0
   -6.2599   -5.1352   -5.2514 H   0  0  0  0  0  0  0  0  0  0  0  0
   -6.4030   -4.8908   -3.4732 H   0  0  0  0  0  0  0  0  0  0  0  0
   -4.9895   -5.7915   -4.1556 H   0  0  0  0  0  0  0  0  0  0  0  0
  1  8  1  0  0  0  0
  2  1  1  0  0  0  0
  2  3  2  0  0  0  0
  3  4  1  0  0  0  0
  4  5  2  0  0  0  0
  4 12  1  0  0  0  0
  5  9  1  0  0  0  0
  6  7  2  0  0  0  0
  6  5  1  0  0  0  0
  8 27  1  0  0  0  0
  8  6  1  0  0  0  0
  9 28  1  0  0  0  0
  9 10  2  0  0  0  0
 10 29  1  0  0  0  0
 11 10  1  0  0  0  0
 11 30  1  0  0  0  0
 12 11  2  0  0  0  0
 13 15  1  0  0  0  0
 13  1  1  0  0  0  0
 14 13  2  0  0  0  0
 15 32  1  0  0  0  0
 16 17  1  0  0  0  0
 16 15  1  0  0  0  0
 17 33  1  0  0  0  0
 18 34  1  0  0  0  0
 18 17  2  0  0  0  0
 19 18  1  0  0  0  0
 20 19  2  0  0  0  0
 20 21  1  0  0  0  0
 21 16  2  0  0  0  0
 22 23  1  0  0  0  0
 22 19  1  0  0  0  0
 23 39  1  0  0  0  0
 23 38  1  0  0  0  0
 24  2  1  0  0  0  0
 25  3  1  0  0  0  0
 26  8  1  0  0  0  0
 31 12  1  0  0  0  0
 35 20  1  0  0  0  0
 36 21  1  0  0  0  0
 37 23  1  0  0  0  0
M  END
$$$$
