39

N          0.28310       -0.06320       -0.12550
C          1.66000       -0.05110       -0.01300
C          2.32940        0.00570        1.16730
C          1.86410       -0.25390        2.53020
C          0.53260       -0.58150        2.93490
C         -0.64680       -0.40610        2.06380
O         -1.70060       -1.01430        2.19350
C         -0.48120        0.58550        0.92490
C          0.27890       -1.03330        4.24420
C          1.29070       -1.11150        5.19070
C          2.59340       -0.74280        4.82450
C          2.86800       -0.33610        3.52540
C         -0.32630       -0.70590       -1.23710
O          0.29730       -0.90220       -2.26150
N         -1.62690       -1.05990       -0.99760
C         -2.53380       -1.65040       -1.90450
C         -2.27030       -1.81900       -3.27610
C         -3.23200       -2.39410       -4.09920
C         -4.46970       -2.81670       -3.58970
C         -4.73270       -2.65230       -2.22280
C         -3.76810       -2.07310       -1.39540
O         -5.33560       -3.36650       -4.48120
C         -6.58830       -3.81280       -4.02200
H          2.18880       -0.11240       -0.96610
H          3.41260        0.11450        1.07820
H         -1.46670        0.88570        0.55000
H          0.07350        1.48050        1.24510
H         -0.75010       -1.29960        4.49330
H          1.07450       -1.45080        6.20590
H          3.40220       -0.78750        5.55790
H          3.89550       -0.09090        3.24630
H         -1.94100       -1.06340       -0.02870
H         -1.31000       -1.50860       -3.68000
H         -3.03900       -2.53200       -5.16470
H         -5.67940       -2.96910       -1.78670
H         -3.98190       -1.94940       -0.32990
H         -7.11880       -4.21660       -4.89470
H         -7.18620       -2.98950       -3.58970
H         -6.48880       -4.61090       -3.26350
