rmsd23.gzmat
 OpenBabel08211713393D

 39 41  0  0  0  0  0  0  0  0999 V2000
    0.0000    0.0000    0.0000 N   0  0  0  0  0  0  0  0  0  0  0  0
    1.3918    0.0000    0.0000 C   0  0  0  0  0  0  0  0  0  0  0  0
    2.2096    0.0000    1.0782 C   0  0  0  0  0  0  0  0  0  0  0  0
    1.9445   -0.2097    2.4874 C   0  0  0  0  0  0  0  0  0  0  0  0
    0.7353   -0.6617    3.0375 C   0  0  0  0  0  0  0  0  0  0  0  0
   -0.4892   -0.7745    2.2451 C   0  0  0  0  0  0  0  0  0  0  0  0
   -1.3120   -1.6515    2.3453 O   0  0  0  0  0  0  0  0  0  0  0  0
   -0.7096    0.3443    1.2216 C   0  0  0  0  0  0  0  0  0  0  0  0
    0.6378   -0.9856    4.3978 C   0  0  0  0  0  0  0  0  0  0  0  0
    1.7241   -0.8148    5.2408 C   0  0  0  0  0  0  0  0  0  0  0  0
    2.9221   -0.3138    4.7202 C   0  0  0  0  0  0  0  0  0  0  0  0
    3.0308   -0.0219    3.3704 C   0  0  0  0  0  0  0  0  0  0  0  0
   -0.6619   -0.6640   -1.0882 C   0  0  0  0  0  0  0  0  0  0  0  0
   -0.2422   -0.5080   -2.2128 O   0  0  0  0  0  0  0  0  0  0  0  0
   -1.7581   -1.4278   -0.7367 N   0  0  0  0  0  0  0  0  0  0  0  0
   -2.5794   -2.0832   -1.6941 C   0  0  0  0  0  0  0  0  0  0  0  0
   -2.1252   -2.4320   -2.9681 C   0  0  0  0  0  0  0  0  0  0  0  0
   -2.9748   -3.0991   -3.8489 C   0  0  0  0  0  0  0  0  0  0  0  0
   -4.2691   -3.4099   -3.4396 C   0  0  0  0  0  0  0  0  0  0  0  0
   -4.7384   -3.0602   -2.1616 C   0  0  0  0  0  0  0  0  0  0  0  0
   -3.8915   -2.3975   -1.2911 C   0  0  0  0  0  0  0  0  0  0  0  0
   -5.2076   -4.0571   -4.1832 O   0  0  0  0  0  0  0  0  0  0  0  0
   -4.8111   -4.5184   -5.4671 C   0  0  0  0  0  0  0  0  0  0  0  0
    1.8171    0.0175   -1.0241 H   0  0  0  0  0  0  0  0  0  0  0  0
    3.2795    0.1273    0.8554 H   0  0  0  0  0  0  0  0  0  0  0  0
   -1.7938    0.5089    1.0266 H   0  0  0  0  0  0  0  0  0  0  0  0
   -0.3215    1.3171    1.6127 H   0  0  0  0  0  0  0  0  0  0  0  0
   -0.3068   -1.3743    4.7864 H   0  0  0  0  0  0  0  0  0  0  0  0
    1.6499   -1.0675    6.2956 H   0  0  0  0  0  0  0  0  0  0  0  0
    3.7748   -0.1603    5.3821 H   0  0  0  0  0  0  0  0  0  0  0  0
    3.9747    0.3574    2.9792 H   0  0  0  0  0  0  0  0  0  0  0  0
   -1.9718   -1.5992    0.2490 H   0  0  0  0  0  0  0  0  0  0  0  0
   -1.1086   -2.1872   -3.2880 H   0  0  0  0  0  0  0  0  0  0  0  0
   -2.6140   -3.3631   -4.8380 H   0  0  0  0  0  0  0  0  0  0  0  0
   -5.7571   -3.3147   -1.8761 H   0  0  0  0  0  0  0  0  0  0  0  0
   -4.2411   -2.1194   -0.2971 H   0  0  0  0  0  0  0  0  0  0  0  0
   -5.7066   -5.0566   -5.8058 H   0  0  0  0  0  0  0  0  0  0  0  0
   -3.9611   -5.2040   -5.3972 H   0  0  0  0  0  0  0  0  0  0  0  0
   -4.5961   -3.6760   -6.1318 H   0  0  0  0  0  0  0  0  0  0  0  0
  1  8  1  0  0  0  0
  2  1  1  0  0  0  0
  2  3  2  0  0  0  0
  3  4  1  0  0  0  0
  4  5  2  0  0  0  0
  4 12  1  0  0  0  0
  5  9  1  0  0  0  0
  6  7  2  0  0  0  0
  6  5  1  0  0  0  0
  8 27  1  0  0  0  0
  8  6  1  0  0  0  0
  9 28  1  0  0  0  0
  9 10  2  0  0  0  0
 10 29  1  0  0  0  0
 11 10  1  0  0  0  0
 11 30  1  0  0  0  0
 12 11  2  0  0  0  0
 13 15  1  0  0  0  0
 13  1  1  0  0  0  0
 14 13  2  0  0  0  0
 15 32  1  0  0  0  0
 16 21  1  0  0  0  0
 16 15  1  0  0  0  0
 17 16  2  0  0  0  0
 18 19  2  0  0  0  0
 18 17  1  0  0  0  0
 19 20  1  0  0  0  0
 20 35  1  0  0  0  0
 20 21  2  0  0  0  0
 21 36  1  0  0  0  0
 22 19  1  0  0  0  0
 23 38  1  0  0  0  0
 23 22  1  0  0  0  0
 24  2  1  0  0  0  0
 25  3  1  0  0  0  0
 26  8  1  0  0  0  0
 31 12  1  0  0  0  0
 33 17  1  0  0  0  0
 34 18  1  0  0  0  0
 37 23  1  0  0  0  0
 39 23  1  0  0  0  0
M  END
$$$$
