rmsd235.gzmat
 OpenBabel08211713363D

 42 43  0  0  0  0  0  0  0  0999 V2000
    0.0000    0.0000    0.0000 C   0  0  0  0  0  0  0  0  0  0  0  0
    1.4081    0.0000    0.0000 C   0  0  0  0  0  0  0  0  0  0  0  0
    2.0613    0.0000    1.2249 C   0  0  0  0  0  0  0  0  0  0  0  0
    1.3408   -0.0405    2.4171 C   0  0  0  0  0  0  0  0  0  0  0  0
   -0.0590   -0.0602    2.3855 C   0  0  0  0  0  0  0  0  0  0  0  0
   -0.7656   -0.0076    1.1721 C   0  0  0  0  0  0  0  0  0  0  0  0
   -2.2357    0.1142    1.0407 C   0  0  0  0  0  0  0  0  0  0  0  0
   -2.9637    0.2101    2.0117 O   0  0  0  0  0  0  0  0  0  0  0  0
   -2.7320    0.1133   -0.3171 C   0  0  0  0  0  0  0  0  0  0  0  0
   -1.8966    0.0556   -1.3710 C   0  0  0  0  0  0  0  0  0  0  0  0
   -2.2524    0.0292   -2.9256 C   0  0  0  0  0  0  0  0  0  0  0  0
   -2.2954    1.1452   -3.4213 O   0  0  0  0  0  0  0  0  0  0  0  0
   -2.4365   -1.1038   -3.3460 O   0  0  0  0  0  0  0  0  0  0  0  0
   -0.5498    0.0141   -1.2458 O   0  0  0  0  0  0  0  0  0  0  0  0
   -0.6204   -0.0357    3.6204 O   0  0  0  0  0  0  0  0  0  0  0  0
   -1.6336   -1.0059    3.8996 C   0  0  0  0  0  0  0  0  0  0  0  0
   -1.0494   -1.9413    4.9628 C   0  0  0  0  0  0  0  0  0  0  0  0
   -0.7648   -1.2013    6.2812 C   0  0  0  0  0  0  0  0  0  0  0  0
   -2.0675   -0.8640    7.0171 C   0  0  0  0  0  0  0  0  0  0  0  0
    0.1341   -2.0646    7.1788 C   0  0  0  0  0  0  0  0  0  0  0  0
    2.1551    0.0190   -1.2952 C   0  0  0  0  0  0  0  0  0  0  0  0
    2.1462    1.4048   -1.8678 C   0  0  0  0  0  0  0  0  0  0  0  0
    3.2580    2.0929   -2.1261 C   0  0  0  0  0  0  0  0  0  0  0  0
    3.1497    0.0247    1.2589 H   0  0  0  0  0  0  0  0  0  0  0  0
    1.8492   -0.0570    3.3742 H   0  0  0  0  0  0  0  0  0  0  0  0
   -3.8078    0.1666   -0.4517 H   0  0  0  0  0  0  0  0  0  0  0  0
   -1.9470   -1.5632    3.0011 H   0  0  0  0  0  0  0  0  0  0  0  0
   -2.4850   -0.3997    4.2614 H   0  0  0  0  0  0  0  0  0  0  0  0
   -0.1109   -2.3831    4.5755 H   0  0  0  0  0  0  0  0  0  0  0  0
   -1.7406   -2.7845    5.1345 H   0  0  0  0  0  0  0  0  0  0  0  0
   -0.2279   -0.2491    6.0412 H   0  0  0  0  0  0  0  0  0  0  0  0
   -2.6517   -1.7626    7.2353 H   0  0  0  0  0  0  0  0  0  0  0  0
   -2.6970   -0.1972    6.4140 H   0  0  0  0  0  0  0  0  0  0  0  0
   -1.8679   -0.3559    7.9645 H   0  0  0  0  0  0  0  0  0  0  0  0
   -0.3422   -3.0196    7.4180 H   0  0  0  0  0  0  0  0  0  0  0  0
    0.3544   -1.5580    8.1225 H   0  0  0  0  0  0  0  0  0  0  0  0
    1.0895   -2.2809    6.6899 H   0  0  0  0  0  0  0  0  0  0  0  0
    1.6739   -0.6777   -2.0261 H   0  0  0  0  0  0  0  0  0  0  0  0
    3.1851   -0.3658   -1.1653 H   0  0  0  0  0  0  0  0  0  0  0  0
    1.1466    1.8058   -2.0663 H   0  0  0  0  0  0  0  0  0  0  0  0
    4.2512    1.7249   -1.9437 H   0  0  0  0  0  0  0  0  0  0  0  0
    3.2549    3.0863   -2.5402 H   0  0  0  0  0  0  0  0  0  0  0  0
  1  6  1  0  0  0  0
  2  1  2  0  0  0  0
  2  3  1  0  0  0  0
  3 24  1  0  0  0  0
  3  4  2  0  0  0  0
  4 25  1  0  0  0  0
  5  4  1  0  0  0  0
  5 15  1  0  0  0  0
  6  5  2  0  0  0  0
  7  6  1  0  0  0  0
  7  8  2  0  0  0  0
  9  7  1  0  0  0  0
 10 14  1  0  0  0  0
 10  9  2  0  0  0  0
 11 10  1  0  0  0  0
 12 11  2  0  0  0  0
 13 11  1  0  0  0  0
 14  1  1  0  0  0  0
 15 16  1  0  0  0  0
 16 28  1  0  0  0  0
 16 17  1  0  0  0  0
 17 30  1  0  0  0  0
 17 18  1  0  0  0  0
 18 19  1  0  0  0  0
 18 20  1  0  0  0  0
 19 32  1  0  0  0  0
 19 34  1  0  0  0  0
 20 35  1  0  0  0  0
 20 36  1  0  0  0  0
 21 39  1  0  0  0  0
 21  2  1  0  0  0  0
 22 21  1  0  0  0  0
 23 41  1  0  0  0  0
 23 22  2  0  0  0  0
 26  9  1  0  0  0  0
 27 16  1  0  0  0  0
 29 17  1  0  0  0  0
 31 18  1  0  0  0  0
 33 19  1  0  0  0  0
 37 20  1  0  0  0  0
 38 21  1  0  0  0  0
 40 22  1  0  0  0  0
 42 23  1  0  0  0  0
M  RAD  1  13   2
M  END
$$$$
