42
rmsd44.gzmat
C          0.00000        0.00000        0.00000
C          1.40700        0.00000        0.00000
C          2.05800        0.00000        1.22790
C          1.34050       -0.05160        2.41980
C         -0.06000       -0.08840        2.38710
C         -0.76480       -0.01930        1.17430
C         -2.23440        0.11240        1.04680
O         -2.95880        0.20970        2.02030
C         -2.73530        0.12460       -0.30900
C         -1.90270        0.07400       -1.36540
C         -2.26410        0.06250       -2.91880
O         -2.25280        1.17770       -3.41840
O         -2.50820       -1.06080       -3.33470
O         -0.55620        0.02620       -1.24300
O         -0.61600       -0.10480        3.62440
C         -1.64600       -1.06760        3.86990
C         -1.08210       -2.00140        4.94770
C         -2.02790       -3.18790        5.19250
C         -1.34810       -4.21100        6.11470
C         -3.34780       -2.71940        5.81710
C          2.17470        0.02150       -1.28300
C          3.20770       -1.05950       -1.32510
C          4.38730       -0.92350       -1.93180
H          3.14710        0.02650        1.25740
H          1.84970       -0.06590        3.37660
H         -3.81120        0.18370       -0.43990
H         -1.93870       -1.61790        2.96100
H         -2.50040       -0.45920        4.22070
H         -0.90710       -1.44020        5.88190
H         -0.08580       -2.36410        4.62980
H         -2.24900       -3.68160        4.21370
H         -1.11710       -3.77680        7.09230
H         -0.40880       -4.57320        5.68420
H         -1.99170       -5.07960        6.28290
H         -3.18210       -2.21580        6.77410
H         -4.02520       -3.55960        5.99390
H         -3.86850       -2.01120        5.15930
H          2.62320        1.02700       -1.43510
H          1.49170       -0.11000       -2.16260
H          2.91670       -1.98890       -0.83350
H          4.70830       -0.02360       -2.42730
H          5.12040       -1.70850       -1.98400
