42
rmsd42.gzmat
C          0.00000        0.00000        0.00000
C          1.40850        0.00000        0.00000
C          2.05920        0.00000        1.22690
C          1.33900        0.00500        2.42030
C         -0.05930        0.00840        2.38690
C         -0.76420       -0.00450        1.17280
C         -2.23850       -0.07690        1.04710
O         -2.96560       -0.12670        2.02180
C         -2.73710       -0.07260       -0.30980
C         -1.90270       -0.02220       -1.36470
C         -2.26180        0.03330       -2.91750
O         -2.15420        1.15690       -3.38740
O         -2.59900       -1.05330       -3.36440
O         -0.55520        0.00580       -1.24320
O         -0.63980       -0.08520        3.61210
C         -1.56950        0.94320        3.96280
C         -0.88990        1.79060        5.04350
C         -0.63830        0.97520        6.32410
C          0.42940        1.66470        7.18570
C         -1.93240        0.80500        7.13000
C          2.15850        0.02800       -1.29350
C          3.38270       -0.83010       -1.25170
C          4.56980       -0.43500       -1.71320
H          3.14870        0.00380        1.25940
H          1.84820        0.00560        3.37720
H         -3.81360       -0.11810       -0.44420
H         -2.44870        0.38000        4.32750
H         -1.87340        1.55350        3.09620
H         -1.50410        2.68020        5.26410
H          0.07250        2.17000        4.64770
H         -0.26090       -0.03700        6.02910
H          0.11190        2.66570        7.49150
H          1.37190        1.76560        6.63710
H          0.63570        1.09020        8.09320
H         -2.33640        1.76880        7.45300
H         -1.76530        0.19640        8.02340
H         -2.70420        0.30490        6.53130
H          2.39920        1.08190       -1.55700
H          1.50870       -0.32280       -2.13770
H          3.22900       -1.82170       -0.82330
H          4.75540        0.53550       -2.14160
H          5.44840       -1.05560       -1.70140
