42
rmsd170.gzmat
C          0.00000        0.00000        0.00000
C          1.40710        0.00000        0.00000
C          2.05910        0.00000        1.22730
C          1.34240        0.04960        2.42020
C         -0.05690        0.09880        2.38650
C         -0.76210        0.02480        1.17500
C         -2.23320       -0.09720        1.05580
O         -2.95290       -0.18310        2.03380
C         -2.73780       -0.10540       -0.29880
C         -1.90790       -0.05500       -1.35720
C         -2.27830       -0.00820       -2.90710
O         -2.08840        1.09150       -3.40750
O         -2.70640       -1.07460       -3.32390
O         -0.55990       -0.02190       -1.24080
O         -0.63100        0.14400        3.61690
C         -1.59010        1.18330        3.83460
C         -0.93010        2.21540        4.75360
C          0.12730        3.05660        4.01560
C         -0.52000        4.02550        3.02090
C          0.96970        3.83660        5.03620
C          2.17360        0.01700       -1.28370
C          3.17550       -1.09190       -1.34180
C          4.39480       -0.94940       -1.86250
H          3.14840       -0.02600        1.25570
H          1.85180        0.05990        3.37700
H         -3.81390       -0.17060       -0.42890
H         -2.43060        0.65010        4.31720
H         -1.95120        1.63690        2.89680
H         -0.45560        1.68950        5.60420
H         -1.70540        2.86990        5.18830
H          0.80370        2.36350        3.45320
H         -1.21660        4.70800        3.51480
H         -1.07760        3.48700        2.24320
H          0.23660        4.62970        2.50980
H          0.34720        4.49390        5.64980
H          1.71690        4.45950        4.53490
H          1.50270        3.15710        5.70830
H          2.65080        1.01160       -1.41880
H          1.48780       -0.07880       -2.16530
H          2.82630       -2.04370       -0.93760
H          4.76790       -0.02760       -2.27440
H          5.11240       -1.74830       -1.92160
