rmsd42.gzmat
 OpenBabel08211713363D

 42 43  0  0  0  0  0  0  0  0999 V2000
    0.0000    0.0000    0.0000 C   0  0  0  0  0  0  0  0  0  0  0  0
    1.4085    0.0000    0.0000 C   0  0  0  0  0  0  0  0  0  0  0  0
    2.0592    0.0000    1.2269 C   0  0  0  0  0  0  0  0  0  0  0  0
    1.3390    0.0050    2.4203 C   0  0  0  0  0  0  0  0  0  0  0  0
   -0.0593    0.0084    2.3869 C   0  0  0  0  0  0  0  0  0  0  0  0
   -0.7642   -0.0045    1.1728 C   0  0  0  0  0  0  0  0  0  0  0  0
   -2.2385   -0.0769    1.0471 C   0  0  0  0  0  0  0  0  0  0  0  0
   -2.9656   -0.1267    2.0218 O   0  0  0  0  0  0  0  0  0  0  0  0
   -2.7371   -0.0726   -0.3098 C   0  0  0  0  0  0  0  0  0  0  0  0
   -1.9027   -0.0222   -1.3647 C   0  0  0  0  0  0  0  0  0  0  0  0
   -2.2618    0.0333   -2.9175 C   0  0  0  0  0  0  0  0  0  0  0  0
   -2.1542    1.1569   -3.3874 O   0  0  0  0  0  0  0  0  0  0  0  0
   -2.5990   -1.0533   -3.3644 O   0  0  0  0  0  0  0  0  0  0  0  0
   -0.5552    0.0058   -1.2432 O   0  0  0  0  0  0  0  0  0  0  0  0
   -0.6398   -0.0852    3.6121 O   0  0  0  0  0  0  0  0  0  0  0  0
   -1.5695    0.9432    3.9628 C   0  0  0  0  0  0  0  0  0  0  0  0
   -0.8899    1.7906    5.0435 C   0  0  0  0  0  0  0  0  0  0  0  0
   -0.6383    0.9752    6.3241 C   0  0  0  0  0  0  0  0  0  0  0  0
    0.4294    1.6647    7.1857 C   0  0  0  0  0  0  0  0  0  0  0  0
   -1.9324    0.8050    7.1300 C   0  0  0  0  0  0  0  0  0  0  0  0
    2.1585    0.0280   -1.2935 C   0  0  0  0  0  0  0  0  0  0  0  0
    3.3827   -0.8301   -1.2517 C   0  0  0  0  0  0  0  0  0  0  0  0
    4.5698   -0.4350   -1.7132 C   0  0  0  0  0  0  0  0  0  0  0  0
    3.1487    0.0038    1.2594 H   0  0  0  0  0  0  0  0  0  0  0  0
    1.8482    0.0056    3.3772 H   0  0  0  0  0  0  0  0  0  0  0  0
   -3.8136   -0.1181   -0.4442 H   0  0  0  0  0  0  0  0  0  0  0  0
   -2.4487    0.3800    4.3275 H   0  0  0  0  0  0  0  0  0  0  0  0
   -1.8734    1.5535    3.0962 H   0  0  0  0  0  0  0  0  0  0  0  0
   -1.5041    2.6802    5.2641 H   0  0  0  0  0  0  0  0  0  0  0  0
    0.0725    2.1700    4.6477 H   0  0  0  0  0  0  0  0  0  0  0  0
   -0.2609   -0.0370    6.0291 H   0  0  0  0  0  0  0  0  0  0  0  0
    0.1119    2.6657    7.4915 H   0  0  0  0  0  0  0  0  0  0  0  0
    1.3719    1.7656    6.6371 H   0  0  0  0  0  0  0  0  0  0  0  0
    0.6357    1.0902    8.0932 H   0  0  0  0  0  0  0  0  0  0  0  0
   -2.3364    1.7688    7.4530 H   0  0  0  0  0  0  0  0  0  0  0  0
   -1.7653    0.1964    8.0234 H   0  0  0  0  0  0  0  0  0  0  0  0
   -2.7042    0.3049    6.5313 H   0  0  0  0  0  0  0  0  0  0  0  0
    2.3992    1.0819   -1.5570 H   0  0  0  0  0  0  0  0  0  0  0  0
    1.5087   -0.3228   -2.1377 H   0  0  0  0  0  0  0  0  0  0  0  0
    3.2290   -1.8217   -0.8233 H   0  0  0  0  0  0  0  0  0  0  0  0
    4.7554    0.5355   -2.1416 H   0  0  0  0  0  0  0  0  0  0  0  0
    5.4484   -1.0556   -1.7014 H   0  0  0  0  0  0  0  0  0  0  0  0
  1  6  1  0  0  0  0
  2  1  2  0  0  0  0
  2  3  1  0  0  0  0
  3 24  1  0  0  0  0
  3  4  2  0  0  0  0
  4 25  1  0  0  0  0
  5  4  1  0  0  0  0
  5 15  1  0  0  0  0
  6  5  2  0  0  0  0
  7  6  1  0  0  0  0
  7  8  2  0  0  0  0
  9  7  1  0  0  0  0
 10 14  1  0  0  0  0
 10  9  2  0  0  0  0
 11 10  1  0  0  0  0
 12 11  2  0  0  0  0
 13 11  1  0  0  0  0
 14  1  1  0  0  0  0
 15 16  1  0  0  0  0
 16 27  1  0  0  0  0
 16 17  1  0  0  0  0
 17 29  1  0  0  0  0
 17 18  1  0  0  0  0
 18 20  1  0  0  0  0
 18 19  1  0  0  0  0
 19 32  1  0  0  0  0
 19 34  1  0  0  0  0
 20 35  1  0  0  0  0
 20 36  1  0  0  0  0
 21 22  1  0  0  0  0
 21  2  1  0  0  0  0
 22 40  1  0  0  0  0
 23 42  1  0  0  0  0
 23 22  2  0  0  0  0
 26  9  1  0  0  0  0
 28 16  1  0  0  0  0
 30 17  1  0  0  0  0
 31 18  1  0  0  0  0
 33 19  1  0  0  0  0
 37 20  1  0  0  0  0
 38 21  1  0  0  0  0
 39 21  1  0  0  0  0
 41 23  1  0  0  0  0
M  RAD  1  13   2
M  END
$$$$
