42
rmsd65.gzmat
C          0.00000        0.00000        0.00000
C          1.40840        0.00000        0.00000
C          2.06210        0.00000        1.22430
C          1.34210       -0.02880        2.41780
C         -0.05650       -0.05610        2.38570
C         -0.76390       -0.01780        1.17260
C         -2.23710        0.06870        1.04550
O         -2.96640        0.10640        2.01920
C         -2.73350        0.10050       -0.31220
C         -1.89810        0.07670       -1.36740
C         -2.25300        0.09920       -2.92190
O         -2.14750        1.21010       -3.41980
O         -2.58310       -1.00060       -3.34220
O         -0.55110        0.02450       -1.24520
O         -0.63020       -0.01970        3.61760
C         -1.57600       -1.05150        3.91180
C         -0.90830       -1.94220        4.96630
C         -1.89800       -2.99260        5.49500
C         -2.15340       -4.08300        4.44740
C         -1.34740       -3.62450        6.78220
C          2.15580       -0.00680       -1.29500
C          2.16830       -1.39190       -1.86750
C          3.28660       -2.03160       -2.20880
H          3.15050        0.01200        1.25720
H          1.85170       -0.03240        3.37440
H         -3.81010        0.14220       -0.44580
H         -1.87400       -1.62060        3.01630
H         -2.45380       -0.50070        4.29740
H         -0.53440       -1.31070        5.79360
H         -0.01270       -2.42710        4.53790
H         -2.86670       -2.48840        5.73270
H         -1.23190       -4.61400        4.18810
H         -2.55910       -3.65780        3.52010
H         -2.87350       -4.82270        4.80820
H         -0.39100       -4.12540        6.60150
H         -2.03950       -4.37010        7.18400
H         -1.18580       -2.87050        7.55880
H          3.18010        0.39360       -1.16700
H          1.66390        0.68250       -2.02740
H          1.17730       -1.83800       -1.99320
H          4.27400       -1.62180       -2.09860
H          3.29470       -3.02210       -2.62980
