rmsd95.gzmat
 OpenBabel08211713363D

 42 43  0  0  0  0  0  0  0  0999 V2000
    0.0000    0.0000    0.0000 C   0  0  0  0  0  0  0  0  0  0  0  0
    1.4085    0.0000    0.0000 C   0  0  0  0  0  0  0  0  0  0  0  0
    2.0582    0.0000    1.2276 C   0  0  0  0  0  0  0  0  0  0  0  0
    1.3371    0.0004    2.4202 C   0  0  0  0  0  0  0  0  0  0  0  0
   -0.0619   -0.0076    2.3868 C   0  0  0  0  0  0  0  0  0  0  0  0
   -0.7656   -0.0262    1.1719 C   0  0  0  0  0  0  0  0  0  0  0  0
   -2.2371   -0.1338    1.0406 C   0  0  0  0  0  0  0  0  0  0  0  0
   -2.9653   -0.2270    2.0115 O   0  0  0  0  0  0  0  0  0  0  0  0
   -2.7340   -0.1128   -0.3166 C   0  0  0  0  0  0  0  0  0  0  0  0
   -1.9000   -0.0230   -1.3692 C   0  0  0  0  0  0  0  0  0  0  0  0
   -2.2576    0.0529   -2.9221 C   0  0  0  0  0  0  0  0  0  0  0  0
   -2.1716   -1.0267   -3.4878 O   0  0  0  0  0  0  0  0  0  0  0  0
   -2.5719    1.1814   -3.2727 O   0  0  0  0  0  0  0  0  0  0  0  0
   -0.5536    0.0272   -1.2438 O   0  0  0  0  0  0  0  0  0  0  0  0
   -0.6326   -0.0992    3.6155 O   0  0  0  0  0  0  0  0  0  0  0  0
   -1.6149    0.8865    3.9486 C   0  0  0  0  0  0  0  0  0  0  0  0
   -1.0066    1.7280    5.0753 C   0  0  0  0  0  0  0  0  0  0  0  0
   -0.8239    0.9030    6.3615 C   0  0  0  0  0  0  0  0  0  0  0  0
    0.1690    1.6058    7.2992 C   0  0  0  0  0  0  0  0  0  0  0  0
   -2.1649    0.7002    7.0781 C   0  0  0  0  0  0  0  0  0  0  0  0
    2.1557    0.0124   -1.2952 C   0  0  0  0  0  0  0  0  0  0  0  0
    3.3882   -0.8325   -1.2524 C   0  0  0  0  0  0  0  0  0  0  0  0
    4.5161   -0.5144   -1.8887 C   0  0  0  0  0  0  0  0  0  0  0  0
    3.1473    0.0074    1.2620 H   0  0  0  0  0  0  0  0  0  0  0  0
    1.8449    0.0043    3.3777 H   0  0  0  0  0  0  0  0  0  0  0  0
   -3.8099   -0.1661   -0.4520 H   0  0  0  0  0  0  0  0  0  0  0  0
   -2.4904    0.2890    4.2655 H   0  0  0  0  0  0  0  0  0  0  0  0
   -1.9011    1.5074    3.0837 H   0  0  0  0  0  0  0  0  0  0  0  0
   -1.6410    2.6098    5.2681 H   0  0  0  0  0  0  0  0  0  0  0  0
   -0.0258    2.1187    4.7405 H   0  0  0  0  0  0  0  0  0  0  0  0
   -0.4066   -0.0974    6.0824 H   0  0  0  0  0  0  0  0  0  0  0  0
   -0.1746    2.6100    7.5631 H   0  0  0  0  0  0  0  0  0  0  0  0
    1.1540    1.7010    6.8297 H   0  0  0  0  0  0  0  0  0  0  0  0
    0.2994    1.0457    8.2296 H   0  0  0  0  0  0  0  0  0  0  0  0
   -2.6173    1.6540    7.3636 H   0  0  0  0  0  0  0  0  0  0  0  0
   -2.0434    0.1033    7.9864 H   0  0  0  0  0  0  0  0  0  0  0  0
   -2.8788    0.1733    6.4325 H   0  0  0  0  0  0  0  0  0  0  0  0
    2.3837    1.0626   -1.5822 H   0  0  0  0  0  0  0  0  0  0  0  0
    1.5042   -0.3640   -2.1287 H   0  0  0  0  0  0  0  0  0  0  0  0
    3.2922   -1.7533   -0.6751 H   0  0  0  0  0  0  0  0  0  0  0  0
    4.6443    0.3820   -2.4711 H   0  0  0  0  0  0  0  0  0  0  0  0
    5.3972   -1.1308   -1.8805 H   0  0  0  0  0  0  0  0  0  0  0  0
  1  6  1  0  0  0  0
  2  1  2  0  0  0  0
  2  3  1  0  0  0  0
  3 24  1  0  0  0  0
  3  4  2  0  0  0  0
  4 25  1  0  0  0  0
  5  4  1  0  0  0  0
  5 15  1  0  0  0  0
  6  5  2  0  0  0  0
  7  6  1  0  0  0  0
  7  8  2  0  0  0  0
  9  7  1  0  0  0  0
 10 14  1  0  0  0  0
 10  9  2  0  0  0  0
 11 10  1  0  0  0  0
 12 11  2  0  0  0  0
 13 11  1  0  0  0  0
 14  1  1  0  0  0  0
 15 16  1  0  0  0  0
 16 27  1  0  0  0  0
 16 17  1  0  0  0  0
 17 29  1  0  0  0  0
 17 18  1  0  0  0  0
 18 20  1  0  0  0  0
 18 19  1  0  0  0  0
 19 32  1  0  0  0  0
 19 34  1  0  0  0  0
 20 35  1  0  0  0  0
 20 36  1  0  0  0  0
 21 22  1  0  0  0  0
 21  2  1  0  0  0  0
 22 40  1  0  0  0  0
 23 42  1  0  0  0  0
 23 22  2  0  0  0  0
 26  9  1  0  0  0  0
 28 16  1  0  0  0  0
 30 17  1  0  0  0  0
 31 18  1  0  0  0  0
 33 19  1  0  0  0  0
 37 20  1  0  0  0  0
 38 21  1  0  0  0  0
 39 21  1  0  0  0  0
 41 23  1  0  0  0  0
M  RAD  1  13   2
M  END
$$$$
