42
rmsd146.gzmat
C          0.00000        0.00000        0.00000
C          1.40790        0.00000        0.00000
C          2.05940        0.00000        1.22570
C          1.33760       -0.02320        2.41720
C         -0.06310       -0.03460        2.38570
C         -0.76800        0.01250        1.17080
C         -2.23600        0.14820        1.03090
O         -2.96260        0.31020        1.99390
C         -2.73220        0.08220       -0.32550
C         -1.89430       -0.00460       -1.37520
C         -2.24210       -0.13330       -2.92590
O         -2.24780       -1.29550       -3.30670
O         -2.45490        0.94480       -3.45970
O         -0.54720       -0.01110       -1.24670
O         -0.61530       -0.00440        3.62340
C         -1.67810       -0.92250        3.89720
C         -1.17190       -1.82470        5.02690
C         -0.90150       -1.03600        6.31980
C         -2.20970       -0.56760        6.96800
C         -0.11400       -1.91010        7.30750
C          2.15560        0.00430       -1.29510
C          2.05990       -1.33970       -1.95280
C          3.12500       -2.07330       -2.27380
H          3.14770        0.00610        1.26110
H          1.84590       -0.03570        3.37470
H         -3.80830        0.11930       -0.46310
H         -1.96610       -1.51100        3.01020
H         -2.52630       -0.27710        4.19280
H         -0.23920       -2.32300        4.69820
H         -1.90600       -2.62850        5.21110
H         -0.28400       -0.13860        6.06340
H         -2.86850       -1.40860        7.20170
H         -2.75750        0.10860        6.29890
H         -2.01870       -0.02310        7.89680
H         -0.67270       -2.81040        7.57910
H          0.10140       -1.36460        8.23060
H          0.84230       -2.22750        6.87920
H          3.20850        0.31340       -1.14560
H          1.71950        0.77180       -1.98230
H          1.03650       -1.67050       -2.16280
H          4.14090       -1.78040       -2.08070
H          3.05400       -3.03280       -2.75760
