rmsd33.gzmat
 OpenBabel08211713423D

 54 56  0  0  0  0  0  0  0  0999 V2000
    0.0000    0.0000    0.0000 C   0  0  0  0  0  0  0  0  0  0  0  0
    1.4895    0.0000    0.0000 C   0  0  0  0  0  0  0  0  0  0  0  0
    2.2517    0.0000    1.1045 C   0  0  0  0  0  0  0  0  0  0  0  0
    1.7471   -0.0365    2.4741 C   0  0  0  0  0  0  0  0  0  0  0  0
    0.9908   -1.1279    2.9183 C   0  0  0  0  0  0  0  0  0  0  0  0
    0.5426   -1.1735    4.2324 C   0  0  0  0  0  0  0  0  0  0  0  0
    0.8506   -0.1268    5.1075 C   0  0  0  0  0  0  0  0  0  0  0  0
    0.3619   -0.2214    6.4870 C   0  0  0  0  0  0  0  0  0  0  0  0
   -0.3347   -1.0770    6.9736 O   0  0  0  0  0  0  0  0  0  0  0  0
    0.7905    0.8200    7.2535 O   0  0  0  0  0  0  0  0  0  0  0  0
    1.6037    0.9652    4.6696 C   0  0  0  0  0  0  0  0  0  0  0  0
    2.0541    1.0074    3.3545 C   0  0  0  0  0  0  0  0  0  0  0  0
    2.1233   -0.0148   -1.3288 C   0  0  0  0  0  0  0  0  0  0  0  0
    1.8730    0.9930   -2.2605 C   0  0  0  0  0  0  0  0  0  0  0  0
    2.5027    0.9505   -3.4976 C   0  0  0  0  0  0  0  0  0  0  0  0
    3.3864   -0.0834   -3.8324 C   0  0  0  0  0  0  0  0  0  0  0  0
    3.6106   -1.1126   -2.9109 C   0  0  0  0  0  0  0  0  0  0  0  0
    2.9881   -1.0558   -1.6596 C   0  0  0  0  0  0  0  0  0  0  0  0
    4.5257   -2.2845   -3.1947 C   0  0  0  0  0  0  0  0  0  0  0  0
    3.8645   -3.6046   -2.7519 C   0  0  0  0  0  0  0  0  0  0  0  0
    5.8315   -2.0759   -2.4063 C   0  0  0  0  0  0  0  0  0  0  0  0
    4.8267   -2.4006   -4.7024 C   0  0  0  0  0  0  0  0  0  0  0  0
    5.2129   -1.0461   -5.2887 C   0  0  0  0  0  0  0  0  0  0  0  0
    4.0453   -0.0432   -5.1946 C   0  0  0  0  0  0  0  0  0  0  0  0
    4.6225    1.3611   -5.4641 C   0  0  0  0  0  0  0  0  0  0  0  0
    2.9792   -0.3714   -6.2554 C   0  0  0  0  0  0  0  0  0  0  0  0
   -0.3937   -0.9250   -0.4492 H   0  0  0  0  0  0  0  0  0  0  0  0
   -0.4018    0.8366   -0.5917 H   0  0  0  0  0  0  0  0  0  0  0  0
   -0.4304    0.0841    1.0081 H   0  0  0  0  0  0  0  0  0  0  0  0
    3.3424    0.0317    1.0297 H   0  0  0  0  0  0  0  0  0  0  0  0
    0.7644   -1.9416    2.2313 H   0  0  0  0  0  0  0  0  0  0  0  0
   -0.0476   -2.0220    4.5894 H   0  0  0  0  0  0  0  0  0  0  0  0
    0.4708    0.7683    8.1879 H   0  0  0  0  0  0  0  0  0  0  0  0
    1.8380    1.7803    5.3587 H   0  0  0  0  0  0  0  0  0  0  0  0
    2.6441    1.8530    3.0047 H   0  0  0  0  0  0  0  0  0  0  0  0
    1.1985    1.8111   -2.0183 H   0  0  0  0  0  0  0  0  0  0  0  0
    2.3008    1.7415   -4.2194 H   0  0  0  0  0  0  0  0  0  0  0  0
    3.1772   -1.8385   -0.9245 H   0  0  0  0  0  0  0  0  0  0  0  0
    2.8525   -3.6962   -3.1613 H   0  0  0  0  0  0  0  0  0  0  0  0
    3.7862   -3.6792   -1.6623 H   0  0  0  0  0  0  0  0  0  0  0  0
    4.4436   -4.4695   -3.0917 H   0  0  0  0  0  0  0  0  0  0  0  0
    6.3007   -1.1196   -2.6647 H   0  0  0  0  0  0  0  0  0  0  0  0
    6.5535   -2.8711   -2.6158 H   0  0  0  0  0  0  0  0  0  0  0  0
    5.6500   -2.0656   -1.3261 H   0  0  0  0  0  0  0  0  0  0  0  0
    5.6356   -3.1350   -4.8700 H   0  0  0  0  0  0  0  0  0  0  0  0
    3.9414   -2.8026   -5.2313 H   0  0  0  0  0  0  0  0  0  0  0  0
    5.5273   -1.1606   -6.3421 H   0  0  0  0  0  0  0  0  0  0  0  0
    6.0954   -0.6438   -4.7546 H   0  0  0  0  0  0  0  0  0  0  0  0
    5.2456    1.6968   -4.6274 H   0  0  0  0  0  0  0  0  0  0  0  0
    3.8346    2.1070   -5.6084 H   0  0  0  0  0  0  0  0  0  0  0  0
    5.2413    1.3672   -6.3675 H   0  0  0  0  0  0  0  0  0  0  0  0
    2.5315   -1.3552   -6.0760 H   0  0  0  0  0  0  0  0  0  0  0  0
    3.4063   -0.3752   -7.2628 H   0  0  0  0  0  0  0  0  0  0  0  0
    2.1654    0.3613   -6.2424 H   0  0  0  0  0  0  0  0  0  0  0  0
  1 29  1  0  0  0  0
  2  1  1  0  0  0  0
  2  3  2  0  0  0  0
  3  4  1  0  0  0  0
  4  5  2  0  0  0  0
  4 12  1  0  0  0  0
  5  6  1  0  0  0  0
  6 32  1  0  0  0  0
  6  7  2  0  0  0  0
  7  8  1  0  0  0  0
  8  9  2  0  0  0  0
  8 10  1  0  0  0  0
 10 33  1  0  0  0  0
 11  7  1  0  0  0  0
 11 34  1  0  0  0  0
 12 11  2  0  0  0  0
 13  2  1  0  0  0  0
 14 36  1  0  0  0  0
 14 13  2  0  0  0  0
 15 14  1  0  0  0  0
 16 15  2  0  0  0  0
 16 17  1  0  0  0  0
 17 18  2  0  0  0  0
 18 13  1  0  0  0  0
 18 38  1  0  0  0  0
 19 17  1  0  0  0  0
 19 20  1  0  0  0  0
 19 21  1  0  0  0  0
 20 40  1  0  0  0  0
 21 44  1  0  0  0  0
 22 19  1  0  0  0  0
 23 24  1  0  0  0  0
 23 48  1  0  0  0  0
 23 22  1  0  0  0  0
 24 16  1  0  0  0  0
 25 24  1  0  0  0  0
 25 49  1  0  0  0  0
 26 54  1  0  0  0  0
 26 52  1  0  0  0  0
 26 24  1  0  0  0  0
 27  1  1  0  0  0  0
 28  1  1  0  0  0  0
 30  3  1  0  0  0  0
 31  5  1  0  0  0  0
 35 12  1  0  0  0  0
 37 15  1  0  0  0  0
 39 20  1  0  0  0  0
 41 20  1  0  0  0  0
 42 21  1  0  0  0  0
 43 21  1  0  0  0  0
 45 22  1  0  0  0  0
 46 22  1  0  0  0  0
 47 23  1  0  0  0  0
 50 25  1  0  0  0  0
 51 25  1  0  0  0  0
 53 26  1  0  0  0  0
M  END
$$$$
