rmsd53.gzmat
 OpenBabel08211713423D

 54 56  0  0  0  0  0  0  0  0999 V2000
    0.0000    0.0000    0.0000 C   0  0  0  0  0  0  0  0  0  0  0  0
    1.4907    0.0000    0.0000 C   0  0  0  0  0  0  0  0  0  0  0  0
    2.2442    0.0000    1.1088 C   0  0  0  0  0  0  0  0  0  0  0  0
    1.7114   -0.0257    2.4701 C   0  0  0  0  0  0  0  0  0  0  0  0
    1.1333   -1.1951    2.9778 C   0  0  0  0  0  0  0  0  0  0  0  0
    0.6407   -1.2180    4.2769 C   0  0  0  0  0  0  0  0  0  0  0  0
    0.7276   -0.0713    5.0731 C   0  0  0  0  0  0  0  0  0  0  0  0
    0.1949   -0.1414    6.4379 C   0  0  0  0  0  0  0  0  0  0  0  0
   -0.3427   -1.0743    6.9806 O   0  0  0  0  0  0  0  0  0  0  0  0
    0.3651    1.0295    7.1132 O   0  0  0  0  0  0  0  0  0  0  0  0
    1.3083    1.0960    4.5726 C   0  0  0  0  0  0  0  0  0  0  0  0
    1.8012    1.1175    3.2719 C   0  0  0  0  0  0  0  0  0  0  0  0
    2.1129    0.0142   -1.3335 C   0  0  0  0  0  0  0  0  0  0  0  0
    2.9524   -1.0287   -1.7288 C   0  0  0  0  0  0  0  0  0  0  0  0
    3.4907   -1.0243   -3.0087 C   0  0  0  0  0  0  0  0  0  0  0  0
    3.2115    0.0078   -3.9135 C   0  0  0  0  0  0  0  0  0  0  0  0
    2.4177    1.0824   -3.4966 C   0  0  0  0  0  0  0  0  0  0  0  0
    1.8607    1.0635   -2.2130 C   0  0  0  0  0  0  0  0  0  0  0  0
    2.1080    2.2692   -4.3837 C   0  0  0  0  0  0  0  0  0  0  0  0
    2.3275    3.5832   -3.6077 C   0  0  0  0  0  0  0  0  0  0  0  0
    0.6362    2.1712   -4.8247 C   0  0  0  0  0  0  0  0  0  0  0  0
    3.0289    2.3063   -5.6199 C   0  0  0  0  0  0  0  0  0  0  0  0
    3.1418    0.9280   -6.2635 C   0  0  0  0  0  0  0  0  0  0  0  0
    3.8018   -0.0835   -5.3041 C   0  0  0  0  0  0  0  0  0  0  0  0
    3.5694   -1.4903   -5.8907 C   0  0  0  0  0  0  0  0  0  0  0  0
    5.3133    0.1900   -5.2083 C   0  0  0  0  0  0  0  0  0  0  0  0
   -0.4046   -0.6955   -0.7508 H   0  0  0  0  0  0  0  0  0  0  0  0
   -0.3927    0.9991   -0.2434 H   0  0  0  0  0  0  0  0  0  0  0  0
   -0.4256   -0.2841    0.9728 H   0  0  0  0  0  0  0  0  0  0  0  0
    3.3353    0.0290    1.0522 H   0  0  0  0  0  0  0  0  0  0  0  0
    1.0750   -2.0841    2.3521 H   0  0  0  0  0  0  0  0  0  0  0  0
    0.1853   -2.1256    4.6828 H   0  0  0  0  0  0  0  0  0  0  0  0
    0.0167    0.9964    8.0380 H   0  0  0  0  0  0  0  0  0  0  0  0
    1.3747    1.9874    5.2015 H   0  0  0  0  0  0  0  0  0  0  0  0
    2.2548    2.0230    2.8734 H   0  0  0  0  0  0  0  0  0  0  0  0
    3.1759   -1.8416   -1.0411 H   0  0  0  0  0  0  0  0  0  0  0  0
    4.1438   -1.8434   -3.3087 H   0  0  0  0  0  0  0  0  0  0  0  0
    1.2189    1.8823   -1.8890 H   0  0  0  0  0  0  0  0  0  0  0  0
    3.3116    3.5954   -3.1255 H   0  0  0  0  0  0  0  0  0  0  0  0
    1.5760    3.7281   -2.8254 H   0  0  0  0  0  0  0  0  0  0  0  0
    2.2686    4.4494   -4.2752 H   0  0  0  0  0  0  0  0  0  0  0  0
    0.4467    1.2358   -5.3635 H   0  0  0  0  0  0  0  0  0  0  0  0
    0.3614    2.9987   -5.4863 H   0  0  0  0  0  0  0  0  0  0  0  0
   -0.0405    2.1930   -3.9639 H   0  0  0  0  0  0  0  0  0  0  0  0
    2.6452    3.0400   -6.3525 H   0  0  0  0  0  0  0  0  0  0  0  0
    4.0328    2.6707   -5.3292 H   0  0  0  0  0  0  0  0  0  0  0  0
    3.7241    0.9905   -7.2010 H   0  0  0  0  0  0  0  0  0  0  0  0
    2.1371    0.5666   -6.5569 H   0  0  0  0  0  0  0  0  0  0  0  0
    2.5158   -1.7805   -5.8101 H   0  0  0  0  0  0  0  0  0  0  0  0
    4.1611   -2.2529   -5.3749 H   0  0  0  0  0  0  0  0  0  0  0  0
    3.8479   -1.5276   -6.9492 H   0  0  0  0  0  0  0  0  0  0  0  0
    5.5095    1.1763   -4.7728 H   0  0  0  0  0  0  0  0  0  0  0  0
    5.7858    0.1597   -6.1950 H   0  0  0  0  0  0  0  0  0  0  0  0
    5.8145   -0.5490   -4.5743 H   0  0  0  0  0  0  0  0  0  0  0  0
  1 29  1  0  0  0  0
  2  1  1  0  0  0  0
  2  3  2  0  0  0  0
  3  4  1  0  0  0  0
  4  5  2  0  0  0  0
  4 12  1  0  0  0  0
  5  6  1  0  0  0  0
  6 32  1  0  0  0  0
  6  7  2  0  0  0  0
  7  8  1  0  0  0  0
  8  9  2  0  0  0  0
  8 10  1  0  0  0  0
 10 33  1  0  0  0  0
 11  7  1  0  0  0  0
 11 34  1  0  0  0  0
 12 11  2  0  0  0  0
 13  2  1  0  0  0  0
 14 13  1  0  0  0  0
 14 36  1  0  0  0  0
 15 14  2  0  0  0  0
 16 17  2  0  0  0  0
 16 15  1  0  0  0  0
 17 18  1  0  0  0  0
 18 38  1  0  0  0  0
 18 13  2  0  0  0  0
 19 20  1  0  0  0  0
 19 17  1  0  0  0  0
 20 39  1  0  0  0  0
 20 40  1  0  0  0  0
 21 19  1  0  0  0  0
 21 44  1  0  0  0  0
 22 46  1  0  0  0  0
 22 19  1  0  0  0  0
 23 22  1  0  0  0  0
 23 24  1  0  0  0  0
 24 26  1  0  0  0  0
 24 16  1  0  0  0  0
 25 49  1  0  0  0  0
 25 50  1  0  0  0  0
 25 24  1  0  0  0  0
 26 52  1  0  0  0  0
 26 54  1  0  0  0  0
 27  1  1  0  0  0  0
 28  1  1  0  0  0  0
 30  3  1  0  0  0  0
 31  5  1  0  0  0  0
 35 12  1  0  0  0  0
 37 15  1  0  0  0  0
 41 20  1  0  0  0  0
 42 21  1  0  0  0  0
 43 21  1  0  0  0  0
 45 22  1  0  0  0  0
 47 23  1  0  0  0  0
 48 23  1  0  0  0  0
 51 25  1  0  0  0  0
 53 26  1  0  0  0  0
M  END
$$$$
