rmsd46.gzmat
 OpenBabel08211713423D

 54 56  0  0  0  0  0  0  0  0999 V2000
    0.0000    0.0000    0.0000 C   0  0  0  0  0  0  0  0  0  0  0  0
    1.4903    0.0000    0.0000 C   0  0  0  0  0  0  0  0  0  0  0  0
    2.2460    0.0000    1.1065 C   0  0  0  0  0  0  0  0  0  0  0  0
    1.7063   -0.0076    2.4661 C   0  0  0  0  0  0  0  0  0  0  0  0
    1.1782   -1.1856    3.0066 C   0  0  0  0  0  0  0  0  0  0  0  0
    0.6674   -1.1871    4.2990 C   0  0  0  0  0  0  0  0  0  0  0  0
    0.6893   -0.0111    5.0557 C   0  0  0  0  0  0  0  0  0  0  0  0
    0.1324   -0.0552    6.4120 C   0  0  0  0  0  0  0  0  0  0  0  0
   -0.4278   -0.9720    6.9590 O   0  0  0  0  0  0  0  0  0  0  0  0
    0.3071    1.1236    7.0722 O   0  0  0  0  0  0  0  0  0  0  0  0
    1.2246    1.1642    4.5237 C   0  0  0  0  0  0  0  0  0  0  0  0
    1.7317    1.1648    3.2285 C   0  0  0  0  0  0  0  0  0  0  0  0
    2.1051    0.0054   -1.3378 C   0  0  0  0  0  0  0  0  0  0  0  0
    2.0243    1.1385   -2.1478 C   0  0  0  0  0  0  0  0  0  0  0  0
    2.6060    1.1173   -3.4084 C   0  0  0  0  0  0  0  0  0  0  0  0
    3.2676   -0.0205   -3.8879 C   0  0  0  0  0  0  0  0  0  0  0  0
    3.3237   -1.1654   -3.0851 C   0  0  0  0  0  0  0  0  0  0  0  0
    2.7559   -1.1323   -1.8061 C   0  0  0  0  0  0  0  0  0  0  0  0
    3.9968   -2.4466   -3.5293 C   0  0  0  0  0  0  0  0  0  0  0  0
    3.1140   -3.6641   -3.1894 C   0  0  0  0  0  0  0  0  0  0  0  0
    5.3388   -2.5656   -2.7848 C   0  0  0  0  0  0  0  0  0  0  0  0
    4.2291   -2.4567   -5.0534 C   0  0  0  0  0  0  0  0  0  0  0  0
    4.8320   -1.1380   -5.5274 C   0  0  0  0  0  0  0  0  0  0  0  0
    3.8671    0.0383   -5.2766 C   0  0  0  0  0  0  0  0  0  0  0  0
    4.6727    1.3397   -5.4608 C   0  0  0  0  0  0  0  0  0  0  0  0
    2.7135    0.0000   -6.2956 C   0  0  0  0  0  0  0  0  0  0  0  0
   -0.4002   -0.7568   -0.6917 H   0  0  0  0  0  0  0  0  0  0  0  0
   -0.3922    0.9745   -0.3293 H   0  0  0  0  0  0  0  0  0  0  0  0
   -0.4284   -0.2023    0.9918 H   0  0  0  0  0  0  0  0  0  0  0  0
    3.3368    0.0168    1.0511 H   0  0  0  0  0  0  0  0  0  0  0  0
    1.1703   -2.0972    2.4117 H   0  0  0  0  0  0  0  0  0  0  0  0
    0.2469   -2.1000    4.7294 H   0  0  0  0  0  0  0  0  0  0  0  0
   -0.0627    1.1116    7.9891 H   0  0  0  0  0  0  0  0  0  0  0  0
    1.2439    2.0778    5.1231 H   0  0  0  0  0  0  0  0  0  0  0  0
    2.1444    2.0776    2.8030 H   0  0  0  0  0  0  0  0  0  0  0  0
    1.5154    2.0314   -1.7927 H   0  0  0  0  0  0  0  0  0  0  0  0
    2.5404    2.0064   -4.0348 H   0  0  0  0  0  0  0  0  0  0  0  0
    2.8175   -2.0086   -1.1611 H   0  0  0  0  0  0  0  0  0  0  0  0
    2.0809   -3.5071   -3.5190 H   0  0  0  0  0  0  0  0  0  0  0  0
    3.0907   -3.8651   -2.1137 H   0  0  0  0  0  0  0  0  0  0  0  0
    3.4869   -4.5712   -3.6766 H   0  0  0  0  0  0  0  0  0  0  0  0
    5.9876   -1.7089   -2.9982 H   0  0  0  0  0  0  0  0  0  0  0  0
    5.8755   -3.4741   -3.0749 H   0  0  0  0  0  0  0  0  0  0  0  0
    5.1907   -2.5956   -1.6998 H   0  0  0  0  0  0  0  0  0  0  0  0
    4.8896   -3.2995   -5.3281 H   0  0  0  0  0  0  0  0  0  0  0  0
    3.2709   -2.6431   -5.5759 H   0  0  0  0  0  0  0  0  0  0  0  0
    5.0814   -1.1959   -6.6029 H   0  0  0  0  0  0  0  0  0  0  0  0
    5.7916   -0.9540   -5.0066 H   0  0  0  0  0  0  0  0  0  0  0  0
    5.3908    1.4761   -4.6444 H   0  0  0  0  0  0  0  0  0  0  0  0
    4.0272    2.2231   -5.4838 H   0  0  0  0  0  0  0  0  0  0  0  0
    5.2332    1.3261   -6.4013 H   0  0  0  0  0  0  0  0  0  0  0  0
    2.1132   -0.9092   -6.1784 H   0  0  0  0  0  0  0  0  0  0  0  0
    3.0876    0.0249   -7.3234 H   0  0  0  0  0  0  0  0  0  0  0  0
    2.0383    0.8522   -6.1656 H   0  0  0  0  0  0  0  0  0  0  0  0
  1 29  1  0  0  0  0
  2  1  1  0  0  0  0
  2  3  2  0  0  0  0
  3  4  1  0  0  0  0
  4  5  2  0  0  0  0
  4 12  1  0  0  0  0
  5  6  1  0  0  0  0
  6 32  1  0  0  0  0
  6  7  2  0  0  0  0
  7  8  1  0  0  0  0
  8  9  2  0  0  0  0
  8 10  1  0  0  0  0
 10 33  1  0  0  0  0
 11  7  1  0  0  0  0
 11 34  1  0  0  0  0
 12 11  2  0  0  0  0
 13  2  1  0  0  0  0
 14 36  1  0  0  0  0
 14 13  2  0  0  0  0
 15 14  1  0  0  0  0
 16 15  2  0  0  0  0
 16 17  1  0  0  0  0
 17 18  2  0  0  0  0
 18 13  1  0  0  0  0
 18 38  1  0  0  0  0
 19 20  1  0  0  0  0
 19 17  1  0  0  0  0
 19 21  1  0  0  0  0
 20 40  1  0  0  0  0
 21 44  1  0  0  0  0
 22 19  1  0  0  0  0
 23 24  1  0  0  0  0
 23 22  1  0  0  0  0
 23 48  1  0  0  0  0
 24 16  1  0  0  0  0
 25 24  1  0  0  0  0
 25 49  1  0  0  0  0
 26 52  1  0  0  0  0
 26 54  1  0  0  0  0
 26 24  1  0  0  0  0
 27  1  1  0  0  0  0
 28  1  1  0  0  0  0
 30  3  1  0  0  0  0
 31  5  1  0  0  0  0
 35 12  1  0  0  0  0
 37 15  1  0  0  0  0
 39 20  1  0  0  0  0
 41 20  1  0  0  0  0
 42 21  1  0  0  0  0
 43 21  1  0  0  0  0
 45 22  1  0  0  0  0
 46 22  1  0  0  0  0
 47 23  1  0  0  0  0
 50 25  1  0  0  0  0
 51 25  1  0  0  0  0
 53 26  1  0  0  0  0
M  END
$$$$
