
     RDKit          3D

 54 56  0  0  0  0  0  0  0  0999 V2000
   -0.0250    0.8994   -0.0877 C   0  0  0  0  0  0  0  0  0  0  0  0
    1.3414    0.2579   -0.0959 C   0  0  0  0  0  0  0  0  0  0  0  0
    1.9743   -0.1833    1.0203 C   0  0  0  0  0  0  0  0  0  0  0  0
    1.5442   -0.1421    2.4217 C   0  0  0  0  0  0  0  0  0  0  0  0
    1.9993   -1.1606    3.2895 C   0  0  0  0  0  0  0  0  0  0  0  0
    1.6343   -1.1876    4.6287 C   0  0  0  0  0  0  0  0  0  0  0  0
    0.8133   -0.1790    5.1573 C   0  0  0  0  0  0  0  0  0  0  0  0
    0.4501   -0.2464    6.5959 C   0  0  0  0  0  0  0  0  0  0  0  0
    0.8063   -1.1148    7.3595 O   0  0  0  0  0  0  0  0  0  0  0  0
   -0.3384    0.7776    6.9924 O   0  0  0  0  0  0  0  0  0  0  0  0
    0.3793    0.8590    4.3197 C   0  0  0  0  0  0  0  0  0  0  0  0
    0.7413    0.8781    2.9753 C   0  0  0  0  0  0  0  0  0  0  0  0
    1.9910    0.1030   -1.4233 C   0  0  0  0  0  0  0  0  0  0  0  0
    1.7559    1.0310   -2.4535 C   0  0  0  0  0  0  0  0  0  0  0  0
    2.3990    0.8990   -3.6781 C   0  0  0  0  0  0  0  0  0  0  0  0
    3.2841   -0.1570   -3.9558 C   0  0  0  0  0  0  0  0  0  0  0  0
    3.4947   -1.1262   -2.9484 C   0  0  0  0  0  0  0  0  0  0  0  0
    2.8524   -0.9650   -1.7121 C   0  0  0  0  0  0  0  0  0  0  0  0
    4.4242   -2.3354   -3.1354 C   0  0  0  0  0  0  0  0  0  0  0  0
    3.7693   -3.6302   -2.6176 C   0  0  0  0  0  0  0  0  0  0  0  0
    5.7254   -2.0860   -2.3423 C   0  0  0  0  0  0  0  0  0  0  0  0
    4.7465   -2.5378   -4.6286 C   0  0  0  0  0  0  0  0  0  0  0  0
    5.1013   -1.2384   -5.3326 C   0  0  0  0  0  0  0  0  0  0  0  0
    3.9335   -0.2335   -5.3439 C   0  0  0  0  0  0  0  0  0  0  0  0
    4.4948    1.1365   -5.7706 C   0  0  0  0  0  0  0  0  0  0  0  0
    2.8662   -0.6738   -6.3695 C   0  0  0  0  0  0  0  0  0  0  0  0
   -0.5824    0.6278   -0.9962 H   0  0  0  0  0  0  0  0  0  0  0  0
    0.0377    2.0015   -0.0672 H   0  0  0  0  0  0  0  0  0  0  0  0
   -0.6138    0.5878    0.7847 H   0  0  0  0  0  0  0  0  0  0  0  0
    2.9451   -0.6666    0.8767 H   0  0  0  0  0  0  0  0  0  0  0  0
    2.6423   -1.9480    2.8884 H   0  0  0  0  0  0  0  0  0  0  0  0
    1.9760   -1.9833    5.2928 H   0  0  0  0  0  0  0  0  0  0  0  0
   -0.5114    0.6352    7.9378 H   0  0  0  0  0  0  0  0  0  0  0  0
   -0.2363    1.6584    4.7332 H   0  0  0  0  0  0  0  0  0  0  0  0
    0.4267    1.7173    2.3570 H   0  0  0  0  0  0  0  0  0  0  0  0
    1.0874    1.8783   -2.2919 H   0  0  0  0  0  0  0  0  0  0  0  0
    2.2056    1.6484   -4.4475 H   0  0  0  0  0  0  0  0  0  0  0  0
    3.0076   -1.7211   -0.9430 H   0  0  0  0  0  0  0  0  0  0  0  0
    2.7859   -3.7906   -3.0859 H   0  0  0  0  0  0  0  0  0  0  0  0
    3.6296   -3.6256   -1.5268 H   0  0  0  0  0  0  0  0  0  0  0  0
    4.4089   -4.4940   -2.8605 H   0  0  0  0  0  0  0  0  0  0  0  0
    6.2489   -1.1845   -2.6933 H   0  0  0  0  0  0  0  0  0  0  0  0
    6.4102   -2.9441   -2.4424 H   0  0  0  0  0  0  0  0  0  0  0  0
    5.5102   -1.9438   -1.2724 H   0  0  0  0  0  0  0  0  0  0  0  0
    5.5707   -3.2643   -4.7199 H   0  0  0  0  0  0  0  0  0  0  0  0
    3.8758   -2.9998   -5.1230 H   0  0  0  0  0  0  0  0  0  0  0  0
    5.4137   -1.4345   -6.3716 H   0  0  0  0  0  0  0  0  0  0  0  0
    5.9687   -0.7735   -4.8351 H   0  0  0  0  0  0  0  0  0  0  0  0
    5.1913    1.5308   -5.0145 H   0  0  0  0  0  0  0  0  0  0  0  0
    3.7043    1.8847   -5.9278 H   0  0  0  0  0  0  0  0  0  0  0  0
    5.0431    1.0353   -6.7211 H   0  0  0  0  0  0  0  0  0  0  0  0
    2.4537   -1.6641   -6.1267 H   0  0  0  0  0  0  0  0  0  0  0  0
    3.2990   -0.7189   -7.3825 H   0  0  0  0  0  0  0  0  0  0  0  0
    2.0252    0.0358   -6.3890 H   0  0  0  0  0  0  0  0  0  0  0  0
  1  2  1  0
  1 27  1  0
  1 28  1  0
  1 29  1  0
  2  3  2  0
  2 13  1  0
  3  4  1  0
  3 30  1  0
  4  5  2  0
  4 12  1  0
  5  6  1  0
  5 31  1  0
  6  7  2  0
  6 32  1  0
  7  8  1  0
  7 11  1  0
  8  9  2  0
  8 10  1  0
 10 33  1  0
 11 12  2  0
 11 34  1  0
 12 35  1  0
 13 14  2  0
 13 18  1  0
 14 15  1  0
 14 36  1  0
 15 16  2  0
 15 37  1  0
 16 17  1  0
 16 24  1  0
 17 18  2  0
 17 19  1  0
 18 38  1  0
 19 20  1  0
 19 21  1  0
 19 22  1  0
 20 39  1  0
 20 40  1  0
 20 41  1  0
 21 42  1  0
 21 43  1  0
 21 44  1  0
 22 23  1  0
 22 45  1  0
 22 46  1  0
 23 24  1  0
 23 47  1  0
 23 48  1  0
 24 25  1  0
 24 26  1  0
 25 49  1  0
 25 50  1  0
 25 51  1  0
 26 52  1  0
 26 53  1  0
 26 54  1  0
M  END

