54

C         -0.08830        0.73940        0.00500
C          1.36070        0.32430        0.01670
C          2.04930        0.02330        1.14740
C          1.57140       -0.05770        2.53220
C          0.28590       -0.51830        2.89110
C         -0.10420       -0.58520        4.22420
C          0.77780       -0.20120        5.24510
C          0.30890       -0.28840        6.65180
O         -0.79040       -0.66120        6.99350
O          1.24520        0.09750        7.54730
C          2.06900        0.23460        4.90770
C          2.45690        0.29410        3.57390
C          2.06240        0.26150       -1.29290
C          3.02330       -0.73350       -1.55130
C          3.67600       -0.78020       -2.77560
C          3.41750        0.14390       -3.80420
C          2.46930        1.16090       -3.55690
C          1.80610        1.18020       -2.31920
C          2.09840        2.22760       -4.59890
C          2.03920        3.63120       -3.96600
C          0.71030        1.88800       -5.18380
C          3.15080        2.26520       -5.72370
C          3.53150        0.87880       -6.21610
C          4.19640        0.02320       -5.12080
C          4.22920       -1.43480       -5.61790
C          5.64630        0.49920       -4.88380
H         -0.73460       -0.09160       -0.32780
H         -0.25690        1.56210       -0.70470
H         -0.43480        1.07020        0.99180
H          3.12630       -0.13770        1.03820
H         -0.40170       -0.86030        2.11810
H         -1.09570       -0.94660        4.50250
H          0.83670        0.00230        8.42360
H          2.76220        0.52240        5.69870
H          3.46470        0.63120        3.31910
H          3.23400       -1.49290       -0.79610
H          4.40590       -1.57390       -2.94330
H          1.07300        1.96650       -2.14320
H          2.97980        3.87040       -3.44630
H          1.21610        3.73430       -3.24390
H          1.88000        4.38770       -4.75120
H          0.70680        0.90510       -5.67740
H          0.40560        2.64690       -5.92310
H         -0.05230        1.85880       -4.39060
H          2.76290        2.87740       -6.55450
H          4.05010        2.78580       -5.35450
H          4.21490        0.94890       -7.07840
H          2.63150        0.35640       -6.58110
H          3.21140       -1.84570       -5.70470
H          4.80650       -2.09370       -4.95300
H          4.70180       -1.47900       -6.61240
H          5.68070        1.54930       -4.55820
H          6.24010        0.40450       -5.80780
H          6.13310       -0.10270       -4.10160
