54
rmsd28.gzmat
C          0.00000        0.00000        0.00000
C          1.48930        0.00000        0.00000
C          2.25130        0.00000        1.10290
C          1.73370       -0.03970        2.46870
C          2.03480       -1.14390        3.27600
C          1.55070       -1.20660        4.57630
C          0.76880       -0.16010        5.07690
C          0.27360       -0.27380        6.45270
O          0.43480       -1.18180        7.22940
O         -0.45140        0.81750        6.82660
C          0.47610        0.94890        4.28040
C          0.95810        1.00740        2.97660
C          2.11350       -0.00750       -1.33430
C          2.11980       -1.17560       -2.09740
C          2.71590       -1.16640       -3.35140
C          3.31230       -0.00900       -3.86760
C          3.31840        1.15750       -3.09400
C          2.70730        1.14670       -1.83510
C          3.93470        2.45510       -3.57100
C          4.76570        3.10700       -2.44820
C          2.78970        3.40280       -3.97340
C          4.87890        2.22250       -4.76750
C          4.23500        1.31280       -5.80890
C          3.96380       -0.09080       -5.23160
C          3.05210       -0.82730       -6.23290
C          5.28510       -0.86710       -5.07840
H         -0.40630       -0.71000       -0.73570
H         -0.38910        0.99440       -0.26910
H         -0.42690       -0.26460        0.97790
H          3.34240        0.00230        1.03170
H          2.64340       -1.95410        2.87820
H          1.77580       -2.06710        5.21280
H         -0.79210        0.75620        7.75280
H         -0.12960        1.76540        4.68110
H          0.73640        1.86800        2.34830
H          1.66870       -2.08570       -1.70810
H          2.72030       -2.08250       -3.94100
H          2.69310        2.05260       -1.22980
H          5.47140        2.39080       -2.01290
H          4.13480        3.48330       -1.63640
H          5.34110        3.95830       -2.82710
H          2.16470        2.95900       -4.75620
H          3.17610        4.35410       -4.35130
H          2.13510        3.62100       -3.12280
H          5.15390        3.19090       -5.22430
H          5.82850        1.77670       -4.41370
H          4.88250        1.23480       -6.70160
H          3.28640        1.75930       -6.16440
H          2.04640       -0.39300       -6.24300
H          2.95100       -1.89020       -5.99310
H          3.45510       -0.76600       -7.24940
H          5.94920       -0.37770       -4.35720
H          5.81830       -0.93800       -6.03120
H          5.10960       -1.88580       -4.71650
