rmsd118.gzmat
 OpenBabel08211713383D

 38 39  0  0  1  0  0  0  0  0999 V2000
    0.0000    0.0000    0.0000 N   0  0  0  0  0  0  0  0  0  0  0  0
    1.4171    0.0000    0.0000 C   0  0  0  0  0  0  0  0  0  0  0  0
    2.1391    0.0000    0.9599 O   0  0  0  0  0  0  0  0  0  0  0  0
    1.8335    0.1173   -1.3545 N   0  0  0  0  0  0  0  0  0  0  0  0
    0.7487    0.0222   -2.2455 C   0  0  0  0  0  0  0  0  0  0  0  0
    0.8299    0.0443   -3.4397 O   0  0  0  0  0  0  0  0  0  0  0  0
   -0.5304   -0.0835   -1.3814 C   0  0  1  0  0  0  0  0  0  0  0  0
   -1.2118    0.7898   -1.5675 H   0  0  0  0  0  0  0  0  0  0  0  0
   -1.2562   -1.3928   -1.6955 C   0  0  0  0  0  0  0  0  0  0  0  0
   -0.4391   -2.6018   -1.3437 C   0  0  0  0  0  0  0  0  0  0  0  0
    0.3064   -2.7357   -0.4078 O   0  0  0  0  0  0  0  0  0  0  0  0
   -0.6658   -3.5804   -2.2509 O   0  0  0  0  0  0  0  0  0  0  0  0
    0.0638   -4.7897   -2.0542 C   0  0  0  0  0  0  0  0  0  0  0  0
    3.2175   -0.1562   -1.7520 C   0  0  0  0  0  0  0  0  0  0  0  0
    3.4184   -1.6360   -1.9495 C   0  0  0  0  0  0  0  0  0  0  0  0
    3.2210   -2.2015   -3.2094 C   0  0  0  0  0  0  0  0  0  0  0  0
    3.3780   -3.5742   -3.3841 C   0  0  0  0  0  0  0  0  0  0  0  0
    3.7273   -4.3800   -2.3011 C   0  0  0  0  0  0  0  0  0  0  0  0
    3.9165   -3.8138   -1.0415 C   0  0  0  0  0  0  0  0  0  0  0  0
    3.7621   -2.4407   -0.8636 C   0  0  0  0  0  0  0  0  0  0  0  0
   -0.8368   -0.2412    1.1167 C   0  0  0  0  0  0  0  0  0  0  0  0
   -2.0246   -0.3152    0.9103 O   0  0  0  0  0  0  0  0  0  0  0  0
   -0.1804   -0.3459    2.4470 C   0  0  0  0  0  0  0  0  0  0  0  0
   -2.2195   -1.4383   -1.1220 H   0  0  0  0  0  0  0  0  0  0  0  0
   -1.5541   -1.4116   -2.7710 H   0  0  0  0  0  0  0  0  0  0  0  0
   -0.2200   -5.2513   -1.1032 H   0  0  0  0  0  0  0  0  0  0  0  0
    1.1423   -4.5864   -2.0728 H   0  0  0  0  0  0  0  0  0  0  0  0
   -0.2429   -5.4016   -2.9099 H   0  0  0  0  0  0  0  0  0  0  0  0
    3.9017    0.2470   -0.9643 H   0  0  0  0  0  0  0  0  0  0  0  0
    3.4293    0.4143   -2.6901 H   0  0  0  0  0  0  0  0  0  0  0  0
    2.9306   -1.5721   -4.0517 H   0  0  0  0  0  0  0  0  0  0  0  0
    3.2268   -4.0168   -4.3664 H   0  0  0  0  0  0  0  0  0  0  0  0
    3.8553   -5.4516   -2.4396 H   0  0  0  0  0  0  0  0  0  0  0  0
    4.1792   -4.4433   -0.1933 H   0  0  0  0  0  0  0  0  0  0  0  0
    3.8939   -1.9981    0.1253 H   0  0  0  0  0  0  0  0  0  0  0  0
    0.5188   -1.2030    2.4869 H   0  0  0  0  0  0  0  0  0  0  0  0
   -0.9266   -0.4831    3.2448 H   0  0  0  0  0  0  0  0  0  0  0  0
    0.4230    0.5451    2.6901 H   0  0  0  0  0  0  0  0  0  0  0  0
  1  2  1  0  0  0  0
  1 21  1  0  0  0  0
  2  3  2  0  0  0  0
  4  2  1  0  0  0  0
  5  7  1  0  0  0  0
  5  4  1  0  0  0  0
  6  5  2  0  0  0  0
  7  8  1  6  0  0  0
  7  1  1  0  0  0  0
  9  7  1  0  0  0  0
  9 10  1  0  0  0  0
  9 24  1  0  0  0  0
 10 11  2  0  0  0  0
 12 13  1  0  0  0  0
 12 10  1  0  0  0  0
 13 26  1  0  0  0  0
 14  4  1  0  0  0  0
 14 29  1  0  0  0  0
 15 14  1  0  0  0  0
 15 20  2  0  0  0  0
 16 15  1  0  0  0  0
 17 16  2  0  0  0  0
 17 18  1  0  0  0  0
 18 19  2  0  0  0  0
 19 20  1  0  0  0  0
 19 34  1  0  0  0  0
 20 35  1  0  0  0  0
 21 23  1  0  0  0  0
 22 21  2  0  0  0  0
 23 36  1  0  0  0  0
 23 38  1  0  0  0  0
 23 37  1  0  0  0  0
 25  9  1  0  0  0  0
 27 13  1  0  0  0  0
 28 13  1  0  0  0  0
 30 14  1  0  0  0  0
 31 16  1  0  0  0  0
 32 17  1  0  0  0  0
 33 18  1  0  0  0  0
M  END
$$$$
