rmsd132.gzmat
 OpenBabel08211713383D

 38 39  0  0  1  0  0  0  0  0999 V2000
    0.0000    0.0000    0.0000 N   0  0  0  0  0  0  0  0  0  0  0  0
    1.4181    0.0000    0.0000 C   0  0  0  0  0  0  0  0  0  0  0  0
    2.1393    0.0000    0.9601 O   0  0  0  0  0  0  0  0  0  0  0  0
    1.8337    0.1268   -1.3542 N   0  0  0  0  0  0  0  0  0  0  0  0
    0.7476    0.0405   -2.2443 C   0  0  0  0  0  0  0  0  0  0  0  0
    0.8241    0.0835   -3.4385 O   0  0  0  0  0  0  0  0  0  0  0  0
   -0.5294   -0.0886   -1.3814 C   0  0  1  0  0  0  0  0  0  0  0  0
   -1.2272    0.7719   -1.5645 H   0  0  0  0  0  0  0  0  0  0  0  0
   -1.2286   -1.4122   -1.6994 C   0  0  0  0  0  0  0  0  0  0  0  0
   -0.4005   -2.6051   -1.3210 C   0  0  0  0  0  0  0  0  0  0  0  0
    0.3946   -2.6891   -0.4205 O   0  0  0  0  0  0  0  0  0  0  0  0
   -0.6820   -3.6363   -2.1505 O   0  0  0  0  0  0  0  0  0  0  0  0
    0.0493   -4.8380   -1.9149 C   0  0  0  0  0  0  0  0  0  0  0  0
    3.2159   -0.1473   -1.7577 C   0  0  0  0  0  0  0  0  0  0  0  0
    3.3971   -1.6189   -2.0245 C   0  0  0  0  0  0  0  0  0  0  0  0
    3.1095   -2.1344   -3.2888 C   0  0  0  0  0  0  0  0  0  0  0  0
    3.2443   -3.4997   -3.5268 C   0  0  0  0  0  0  0  0  0  0  0  0
    3.6667   -4.3481   -2.5041 C   0  0  0  0  0  0  0  0  0  0  0  0
    3.9484   -3.8318   -1.2408 C   0  0  0  0  0  0  0  0  0  0  0  0
    3.8127   -2.4664   -0.9984 C   0  0  0  0  0  0  0  0  0  0  0  0
   -0.8359   -0.2562    1.1135 C   0  0  0  0  0  0  0  0  0  0  0  0
   -2.0221   -0.3453    0.9029 O   0  0  0  0  0  0  0  0  0  0  0  0
   -0.1820   -0.3590    2.4450 C   0  0  0  0  0  0  0  0  0  0  0  0
   -2.2027   -1.4675   -1.1452 H   0  0  0  0  0  0  0  0  0  0  0  0
   -1.5048   -1.4453   -2.7801 H   0  0  0  0  0  0  0  0  0  0  0  0
   -0.4087   -5.5450   -2.6155 H   0  0  0  0  0  0  0  0  0  0  0  0
   -0.0689   -5.1664   -0.8771 H   0  0  0  0  0  0  0  0  0  0  0  0
    1.1098   -4.6731   -2.1432 H   0  0  0  0  0  0  0  0  0  0  0  0
    3.9015    0.2108   -0.9499 H   0  0  0  0  0  0  0  0  0  0  0  0
    3.4402    0.4616   -2.6687 H   0  0  0  0  0  0  0  0  0  0  0  0
    2.7668   -1.4711   -4.0847 H   0  0  0  0  0  0  0  0  0  0  0  0
    3.0172   -3.9024   -4.5115 H   0  0  0  0  0  0  0  0  0  0  0  0
    3.7790   -5.4136   -2.6930 H   0  0  0  0  0  0  0  0  0  0  0  0
    4.2707   -4.4939   -0.4399 H   0  0  0  0  0  0  0  0  0  0  0  0
    4.0159   -2.0649   -0.0050 H   0  0  0  0  0  0  0  0  0  0  0  0
    0.5022   -1.2279    2.4919 H   0  0  0  0  0  0  0  0  0  0  0  0
   -0.9299   -0.4763    3.2440 H   0  0  0  0  0  0  0  0  0  0  0  0
    0.4385    0.5223    2.6806 H   0  0  0  0  0  0  0  0  0  0  0  0
  1  2  1  0  0  0  0
  1 21  1  0  0  0  0
  2  3  2  0  0  0  0
  4  2  1  0  0  0  0
  5  7  1  0  0  0  0
  5  4  1  0  0  0  0
  6  5  2  0  0  0  0
  7  8  1  6  0  0  0
  7  1  1  0  0  0  0
  9  7  1  0  0  0  0
  9 10  1  0  0  0  0
  9 24  1  0  0  0  0
 10 11  2  0  0  0  0
 12 13  1  0  0  0  0
 12 10  1  0  0  0  0
 13 27  1  0  0  0  0
 14  4  1  0  0  0  0
 14 29  1  0  0  0  0
 15 14  1  0  0  0  0
 15 20  2  0  0  0  0
 16 15  1  0  0  0  0
 17 16  2  0  0  0  0
 17 18  1  0  0  0  0
 18 19  2  0  0  0  0
 19 20  1  0  0  0  0
 19 34  1  0  0  0  0
 20 35  1  0  0  0  0
 21 23  1  0  0  0  0
 22 21  2  0  0  0  0
 23 36  1  0  0  0  0
 23 38  1  0  0  0  0
 23 37  1  0  0  0  0
 25  9  1  0  0  0  0
 26 13  1  0  0  0  0
 28 13  1  0  0  0  0
 30 14  1  0  0  0  0
 31 16  1  0  0  0  0
 32 17  1  0  0  0  0
 33 18  1  0  0  0  0
M  END
$$$$
