38
rmsd104.gzmat
N          0.00000        0.00000        0.00000
C          1.41590        0.00000        0.00000
O          2.14000        0.00000        0.95850
N          1.83140        0.11180       -1.35430
C          0.74720        0.02600       -2.24670
O          0.82790        0.05750       -3.44050
C         -0.53140       -0.08200       -1.38110
H         -1.21270        0.79150       -1.56610
C         -1.25820       -1.39090       -1.69450
C         -0.44320       -2.59880       -1.33170
O          0.22200       -2.76400       -0.34210
O         -0.56330       -3.53180       -2.30380
C          0.19120       -4.72740       -2.11870
C          3.22080       -0.12940       -1.75030
C          3.43390       -1.59130       -2.04430
C          3.72730       -2.47270       -1.00380
C          3.90930       -3.82690       -1.27460
C          3.79660       -4.29820       -2.58210
C          3.48880       -3.41780       -3.61840
C          3.30640       -2.06320       -3.35090
C         -0.83880       -0.22550        1.11940
O         -2.02730       -0.28310        0.91410
C         -0.18000       -0.33580        2.44790
H         -2.22430       -1.43180       -1.12600
H         -1.54730       -1.41250       -2.77250
H         -0.14340       -5.35840       -2.95040
H         -0.03460       -5.18350       -1.14890
H          1.26220       -4.49860       -2.19480
H          3.89390        0.22100       -0.92750
H          3.44310        0.50460       -2.64420
H          3.80010       -2.10390        0.02050
H          4.13720       -4.51530       -0.46250
H          3.95160       -5.35420       -2.79460
H          3.38870       -3.78640       -4.63760
H          3.05090       -1.37510       -4.15820
H          0.48520       -1.21950        2.49360
H         -0.92580       -0.43460        3.25170
H          0.45950        0.53360        2.67740
