38

N          0.00730       -0.05430        0.05680
C          1.40560       -0.04120        0.03640
O          2.16850       -0.06040        0.97030
N          1.78140        0.03250       -1.30990
C          0.70480       -0.01580       -2.16700
O          0.74840       -0.02760       -3.37480
C         -0.54210       -0.14190       -1.29550
H         -1.23130        0.69490       -1.48370
C         -1.26790       -1.45620       -1.61960
C         -0.38630       -2.67460       -1.44220
O          0.54170       -2.75170       -0.66910
O         -0.76010       -3.67570       -2.24420
C          0.02280       -4.87180       -2.15820
C          3.16380       -0.14160       -1.74890
C          3.46770       -1.59980       -2.01860
C          3.82700       -2.44990       -0.96390
C          4.04340       -3.80880       -1.19610
C          3.90190       -4.33160       -2.48510
C          3.53490       -3.49040       -3.53980
C          3.31570       -2.13010       -3.30680
C         -0.83290       -0.11360        1.17400
O         -2.03480       -0.14580        0.99830
C         -0.19170       -0.14450        2.53580
H         -2.14380       -1.54990       -0.96020
H         -1.62570       -1.41540       -2.65730
H         -0.02200       -5.29200       -1.14250
H          1.07310       -4.65940       -2.40450
H         -0.41290       -5.57050       -2.88200
H          3.80180        0.25790       -0.95050
H          3.29620        0.46340       -2.65540
H          3.91520       -2.04220        0.04560
H          4.32170       -4.46360       -0.36690
H          4.07700       -5.39490       -2.66750
H          3.41910       -3.89380       -4.54880
H          3.00740       -1.47390       -4.12340
H          0.44870       -1.03310        2.63260
H         -0.99550       -0.16280        3.28140
H          0.46440        0.72330        2.68940
