rmsd42.gzmat
 OpenBabel08211713383D

 38 39  0  0  1  0  0  0  0  0999 V2000
    0.0000    0.0000    0.0000 N   0  0  0  0  0  0  0  0  0  0  0  0
    1.4193    0.0000    0.0000 C   0  0  0  0  0  0  0  0  0  0  0  0
    2.1323    0.0000    0.9678 O   0  0  0  0  0  0  0  0  0  0  0  0
    1.8322    0.0601   -1.3494 N   0  0  0  0  0  0  0  0  0  0  0  0
    0.7534    0.0403   -2.2437 C   0  0  0  0  0  0  0  0  0  0  0  0
    0.8361    0.0825   -3.4378 O   0  0  0  0  0  0  0  0  0  0  0  0
   -0.5327   -0.0391   -1.3829 C   0  0  1  0  0  0  0  0  0  0  0  0
   -1.1716    0.8703   -1.5548 H   0  0  0  0  0  0  0  0  0  0  0  0
   -1.3284   -1.2991   -1.7133 C   0  0  0  0  0  0  0  0  0  0  0  0
   -0.5531   -2.5587   -1.4707 C   0  0  0  0  0  0  0  0  0  0  0  0
    0.5580   -2.6690   -1.0214 O   0  0  0  0  0  0  0  0  0  0  0  0
   -1.3059   -3.6228   -1.8416 O   0  0  0  0  0  0  0  0  0  0  0  0
   -0.7008   -4.9026   -1.6746 C   0  0  0  0  0  0  0  0  0  0  0  0
    3.2388    0.1814   -1.7339 C   0  0  0  0  0  0  0  0  0  0  0  0
    3.6522    1.6300   -1.7143 C   0  0  0  0  0  0  0  0  0  0  0  0
    4.0010    2.2346   -0.5060 C   0  0  0  0  0  0  0  0  0  0  0  0
    4.3701    3.5774   -0.4849 C   0  0  0  0  0  0  0  0  0  0  0  0
    4.3900    4.3148   -1.6681 C   0  0  0  0  0  0  0  0  0  0  0  0
    4.0360    3.7103   -2.8733 C   0  0  0  0  0  0  0  0  0  0  0  0
    3.6641    2.3677   -2.8975 C   0  0  0  0  0  0  0  0  0  0  0  0
   -0.8424   -0.1464    1.1228 C   0  0  0  0  0  0  0  0  0  0  0  0
   -2.0312   -0.2209    0.9202 O   0  0  0  0  0  0  0  0  0  0  0  0
   -0.1916   -0.1727    2.4606 C   0  0  0  0  0  0  0  0  0  0  0  0
   -2.2716   -1.3227   -1.1056 H   0  0  0  0  0  0  0  0  0  0  0  0
   -1.6753   -1.2632   -2.7737 H   0  0  0  0  0  0  0  0  0  0  0  0
   -0.4371   -5.0657   -0.6243 H   0  0  0  0  0  0  0  0  0  0  0  0
    0.1881   -4.9835   -2.3092 H   0  0  0  0  0  0  0  0  0  0  0  0
   -1.4906   -5.5893   -2.0008 H   0  0  0  0  0  0  0  0  0  0  0  0
    3.3698   -0.2710   -2.7485 H   0  0  0  0  0  0  0  0  0  0  0  0
    3.8616   -0.4252   -1.0289 H   0  0  0  0  0  0  0  0  0  0  0  0
    3.9748    1.6586    0.4213 H   0  0  0  0  0  0  0  0  0  0  0  0
    4.6406    4.0516    0.4565 H   0  0  0  0  0  0  0  0  0  0  0  0
    4.6802    5.3634   -1.6503 H   0  0  0  0  0  0  0  0  0  0  0  0
    4.0464    4.2874   -3.7953 H   0  0  0  0  0  0  0  0  0  0  0  0
    3.3748    1.9000   -3.8386 H   0  0  0  0  0  0  0  0  0  0  0  0
    0.5051   -1.0251    2.5630 H   0  0  0  0  0  0  0  0  0  0  0  0
   -0.9424   -0.2511    3.2622 H   0  0  0  0  0  0  0  0  0  0  0  0
    0.4153    0.7306    2.6473 H   0  0  0  0  0  0  0  0  0  0  0  0
  1  2  1  0  0  0  0
  1 21  1  0  0  0  0
  2  3  2  0  0  0  0
  4  2  1  0  0  0  0
  5  7  1  0  0  0  0
  5  4  1  0  0  0  0
  6  5  2  0  0  0  0
  7  8  1  6  0  0  0
  7  1  1  0  0  0  0
  9 10  1  0  0  0  0
  9  7  1  0  0  0  0
  9 24  1  0  0  0  0
 10 11  2  0  0  0  0
 12 13  1  0  0  0  0
 12 10  1  0  0  0  0
 13 26  1  0  0  0  0
 14 15  1  0  0  0  0
 14  4  1  0  0  0  0
 14 30  1  0  0  0  0
 15 16  2  0  0  0  0
 16 17  1  0  0  0  0
 16 31  1  0  0  0  0
 17 32  1  0  0  0  0
 18 33  1  0  0  0  0
 18 17  2  0  0  0  0
 19 18  1  0  0  0  0
 20 19  2  0  0  0  0
 20 15  1  0  0  0  0
 21 23  1  0  0  0  0
 22 21  2  0  0  0  0
 23 36  1  0  0  0  0
 23 38  1  0  0  0  0
 23 37  1  0  0  0  0
 25  9  1  0  0  0  0
 27 13  1  0  0  0  0
 28 13  1  0  0  0  0
 29 14  1  0  0  0  0
 34 19  1  0  0  0  0
 35 20  1  0  0  0  0
M  END
$$$$
