38
rmsd149.gzmat
N          0.00000        0.00000        0.00000
C          1.41690        0.00000        0.00000
O          2.13960        0.00000        0.95940
N          1.83360        0.11710       -1.35440
C          0.74900        0.02460       -2.24610
O          0.83010        0.04860       -3.44020
C         -0.53020       -0.08210       -1.38180
H         -1.21210        0.79090       -1.56680
C         -1.25420       -1.39200       -1.69780
C         -0.44370       -2.59980       -1.32740
O          0.28350       -2.73140       -0.37670
O         -0.64670       -3.57810       -2.24000
C          0.06570       -4.79310       -2.01760
C          3.21720       -0.15930       -1.75110
C          3.41950       -1.64180       -1.92410
C          3.23690       -2.22670       -3.17720
C          3.39450       -3.60220       -3.32800
C          3.72910       -4.39120       -2.22830
C          3.90260       -3.80540       -0.97550
C          3.74790       -2.42970       -0.82110
C         -0.83530       -0.25490        1.11540
O         -2.02330       -0.32460        0.91000
C         -0.17590       -0.37970        2.44240
H         -2.22490       -1.43240       -1.13660
H         -1.53750       -1.41620       -2.77710
H         -0.31560       -5.28620       -1.11850
H          1.14110       -4.59560       -1.92000
H         -0.15240       -5.37260       -2.92170
H          3.90220        0.25740       -0.97140
H          3.42570        0.39670       -2.69850
H          2.95830       -1.61070       -4.03290
H          3.25460       -4.05920       -4.30560
H          3.85820       -5.46490       -2.34820
H          4.15450       -4.42150       -0.11410
H          3.86640       -1.97220        0.16250
H          0.51340       -1.24520        2.46940
H         -0.92020       -0.51770        3.24150
H          0.43870        0.50130        2.69340
