rmsd126.gzmat
 OpenBabel08211713383D

 38 39  0  0  1  0  0  0  0  0999 V2000
    0.0000    0.0000    0.0000 N   0  0  0  0  0  0  0  0  0  0  0  0
    1.4166    0.0000    0.0000 C   0  0  0  0  0  0  0  0  0  0  0  0
    2.1392    0.0000    0.9597 O   0  0  0  0  0  0  0  0  0  0  0  0
    1.8332    0.1163   -1.3542 N   0  0  0  0  0  0  0  0  0  0  0  0
    0.7482    0.0289   -2.2460 C   0  0  0  0  0  0  0  0  0  0  0  0
    0.8285    0.0602   -3.4398 O   0  0  0  0  0  0  0  0  0  0  0  0
   -0.5302   -0.0816   -1.3816 C   0  0  1  0  0  0  0  0  0  0  0  0
   -1.2138    0.7900   -1.5661 H   0  0  0  0  0  0  0  0  0  0  0  0
   -1.2523   -1.3930   -1.6964 C   0  0  0  0  0  0  0  0  0  0  0  0
   -0.4392   -2.5994   -1.3273 C   0  0  0  0  0  0  0  0  0  0  0  0
    0.2739   -2.7366   -0.3668 O   0  0  0  0  0  0  0  0  0  0  0  0
   -0.6266   -3.5711   -2.2496 O   0  0  0  0  0  0  0  0  0  0  0  0
    0.0931   -4.7825   -2.0297 C   0  0  0  0  0  0  0  0  0  0  0  0
    3.2172   -0.1574   -1.7502 C   0  0  0  0  0  0  0  0  0  0  0  0
    3.4096   -1.6353   -1.9704 C   0  0  0  0  0  0  0  0  0  0  0  0
    3.2615   -2.1731   -3.2488 C   0  0  0  0  0  0  0  0  0  0  0  0
    3.4130   -3.5438   -3.4447 C   0  0  0  0  0  0  0  0  0  0  0  0
    3.7067   -4.3747   -2.3642 C   0  0  0  0  0  0  0  0  0  0  0  0
    3.8420   -3.8363   -1.0854 C   0  0  0  0  0  0  0  0  0  0  0  0
    3.6930   -2.4658   -0.8864 C   0  0  0  0  0  0  0  0  0  0  0  0
   -0.8363   -0.2543    1.1148 C   0  0  0  0  0  0  0  0  0  0  0  0
   -2.0242   -0.3220    0.9081 O   0  0  0  0  0  0  0  0  0  0  0  0
   -0.1774   -0.3794    2.4419 C   0  0  0  0  0  0  0  0  0  0  0  0
   -2.2213   -1.4352   -1.1321 H   0  0  0  0  0  0  0  0  0  0  0  0
   -1.5394   -1.4181   -2.7742 H   0  0  0  0  0  0  0  0  0  0  0  0
   -0.2170   -5.4074   -2.8745 H   0  0  0  0  0  0  0  0  0  0  0  0
   -0.1938   -5.2264   -1.0711 H   0  0  0  0  0  0  0  0  0  0  0  0
    1.1723   -4.5852   -2.0518 H   0  0  0  0  0  0  0  0  0  0  0  0
    3.9003    0.2281   -0.9527 H   0  0  0  0  0  0  0  0  0  0  0  0
    3.4364    0.4286   -2.6769 H   0  0  0  0  0  0  0  0  0  0  0  0
    3.0133   -1.5246   -4.0898 H   0  0  0  0  0  0  0  0  0  0  0  0
    3.3008   -3.9638   -4.4425 H   0  0  0  0  0  0  0  0  0  0  0  0
    3.8342   -5.4441   -2.5205 H   0  0  0  0  0  0  0  0  0  0  0  0
    4.0602   -4.4850   -0.2391 H   0  0  0  0  0  0  0  0  0  0  0  0
    3.7808   -2.0454    0.1173 H   0  0  0  0  0  0  0  0  0  0  0  0
    0.5193   -1.2393    2.4663 H   0  0  0  0  0  0  0  0  0  0  0  0
   -0.9216   -0.5263    3.2393 H   0  0  0  0  0  0  0  0  0  0  0  0
    0.4299    0.5060    2.6963 H   0  0  0  0  0  0  0  0  0  0  0  0
  1  2  1  0  0  0  0
  1 21  1  0  0  0  0
  2  3  2  0  0  0  0
  4  2  1  0  0  0  0
  5  7  1  0  0  0  0
  5  4  1  0  0  0  0
  6  5  2  0  0  0  0
  7  8  1  6  0  0  0
  7  1  1  0  0  0  0
  9  7  1  0  0  0  0
  9 10  1  0  0  0  0
  9 24  1  0  0  0  0
 10 11  2  0  0  0  0
 12 13  1  0  0  0  0
 12 10  1  0  0  0  0
 13 27  1  0  0  0  0
 14  4  1  0  0  0  0
 14 29  1  0  0  0  0
 15 14  1  0  0  0  0
 15 20  2  0  0  0  0
 16 15  1  0  0  0  0
 17 16  2  0  0  0  0
 17 18  1  0  0  0  0
 18 19  2  0  0  0  0
 19 20  1  0  0  0  0
 19 34  1  0  0  0  0
 20 35  1  0  0  0  0
 21 23  1  0  0  0  0
 22 21  2  0  0  0  0
 23 36  1  0  0  0  0
 23 38  1  0  0  0  0
 23 37  1  0  0  0  0
 25  9  1  0  0  0  0
 26 13  1  0  0  0  0
 28 13  1  0  0  0  0
 30 14  1  0  0  0  0
 31 16  1  0  0  0  0
 32 17  1  0  0  0  0
 33 18  1  0  0  0  0
M  END
$$$$
