38
rmsd132.gzmat
N          0.00000        0.00000        0.00000
C          1.41810        0.00000        0.00000
O          2.13930        0.00000        0.96010
N          1.83370        0.12680       -1.35420
C          0.74760        0.04050       -2.24430
O          0.82410        0.08350       -3.43850
C         -0.52940       -0.08860       -1.38140
H         -1.22720        0.77190       -1.56450
C         -1.22860       -1.41220       -1.69940
C         -0.40050       -2.60510       -1.32100
O          0.39460       -2.68910       -0.42050
O         -0.68200       -3.63630       -2.15050
C          0.04930       -4.83800       -1.91490
C          3.21590       -0.14730       -1.75770
C          3.39710       -1.61890       -2.02450
C          3.10950       -2.13440       -3.28880
C          3.24430       -3.49970       -3.52680
C          3.66670       -4.34810       -2.50410
C          3.94840       -3.83180       -1.24080
C          3.81270       -2.46640       -0.99840
C         -0.83590       -0.25620        1.11350
O         -2.02210       -0.34530        0.90290
C         -0.18200       -0.35900        2.44500
H         -2.20270       -1.46750       -1.14520
H         -1.50480       -1.44530       -2.78010
H         -0.40870       -5.54500       -2.61550
H         -0.06890       -5.16640       -0.87710
H          1.10980       -4.67310       -2.14320
H          3.90150        0.21080       -0.94990
H          3.44020        0.46160       -2.66870
H          2.76680       -1.47110       -4.08470
H          3.01720       -3.90240       -4.51150
H          3.77900       -5.41360       -2.69300
H          4.27070       -4.49390       -0.43990
H          4.01590       -2.06490       -0.00500
H          0.50220       -1.22790        2.49190
H         -0.92990       -0.47630        3.24400
H          0.43850        0.52230        2.68060
