rmsd104.gzmat
 OpenBabel08211713383D

 38 39  0  0  1  0  0  0  0  0999 V2000
    0.0000    0.0000    0.0000 N   0  0  0  0  0  0  0  0  0  0  0  0
    1.4159    0.0000    0.0000 C   0  0  0  0  0  0  0  0  0  0  0  0
    2.1400    0.0000    0.9585 O   0  0  0  0  0  0  0  0  0  0  0  0
    1.8314    0.1118   -1.3543 N   0  0  0  0  0  0  0  0  0  0  0  0
    0.7472    0.0260   -2.2467 C   0  0  0  0  0  0  0  0  0  0  0  0
    0.8279    0.0575   -3.4405 O   0  0  0  0  0  0  0  0  0  0  0  0
   -0.5314   -0.0820   -1.3811 C   0  0  1  0  0  0  0  0  0  0  0  0
   -1.2127    0.7915   -1.5661 H   0  0  0  0  0  0  0  0  0  0  0  0
   -1.2582   -1.3909   -1.6945 C   0  0  0  0  0  0  0  0  0  0  0  0
   -0.4432   -2.5988   -1.3317 C   0  0  0  0  0  0  0  0  0  0  0  0
    0.2220   -2.7640   -0.3421 O   0  0  0  0  0  0  0  0  0  0  0  0
   -0.5633   -3.5318   -2.3038 O   0  0  0  0  0  0  0  0  0  0  0  0
    0.1912   -4.7274   -2.1187 C   0  0  0  0  0  0  0  0  0  0  0  0
    3.2208   -0.1294   -1.7503 C   0  0  0  0  0  0  0  0  0  0  0  0
    3.4339   -1.5913   -2.0443 C   0  0  0  0  0  0  0  0  0  0  0  0
    3.7273   -2.4727   -1.0038 C   0  0  0  0  0  0  0  0  0  0  0  0
    3.9093   -3.8269   -1.2746 C   0  0  0  0  0  0  0  0  0  0  0  0
    3.7966   -4.2982   -2.5821 C   0  0  0  0  0  0  0  0  0  0  0  0
    3.4888   -3.4178   -3.6184 C   0  0  0  0  0  0  0  0  0  0  0  0
    3.3064   -2.0632   -3.3509 C   0  0  0  0  0  0  0  0  0  0  0  0
   -0.8388   -0.2255    1.1194 C   0  0  0  0  0  0  0  0  0  0  0  0
   -2.0273   -0.2831    0.9141 O   0  0  0  0  0  0  0  0  0  0  0  0
   -0.1800   -0.3358    2.4479 C   0  0  0  0  0  0  0  0  0  0  0  0
   -2.2243   -1.4318   -1.1260 H   0  0  0  0  0  0  0  0  0  0  0  0
   -1.5473   -1.4125   -2.7725 H   0  0  0  0  0  0  0  0  0  0  0  0
   -0.1434   -5.3584   -2.9504 H   0  0  0  0  0  0  0  0  0  0  0  0
   -0.0346   -5.1835   -1.1489 H   0  0  0  0  0  0  0  0  0  0  0  0
    1.2622   -4.4986   -2.1948 H   0  0  0  0  0  0  0  0  0  0  0  0
    3.8939    0.2210   -0.9275 H   0  0  0  0  0  0  0  0  0  0  0  0
    3.4431    0.5046   -2.6442 H   0  0  0  0  0  0  0  0  0  0  0  0
    3.8001   -2.1039    0.0205 H   0  0  0  0  0  0  0  0  0  0  0  0
    4.1372   -4.5153   -0.4625 H   0  0  0  0  0  0  0  0  0  0  0  0
    3.9516   -5.3542   -2.7946 H   0  0  0  0  0  0  0  0  0  0  0  0
    3.3887   -3.7864   -4.6376 H   0  0  0  0  0  0  0  0  0  0  0  0
    3.0509   -1.3751   -4.1582 H   0  0  0  0  0  0  0  0  0  0  0  0
    0.4852   -1.2195    2.4936 H   0  0  0  0  0  0  0  0  0  0  0  0
   -0.9258   -0.4346    3.2517 H   0  0  0  0  0  0  0  0  0  0  0  0
    0.4595    0.5336    2.6774 H   0  0  0  0  0  0  0  0  0  0  0  0
  1  2  1  0  0  0  0
  1 21  1  0  0  0  0
  2  3  2  0  0  0  0
  4  2  1  0  0  0  0
  5  7  1  0  0  0  0
  5  4  1  0  0  0  0
  6  5  2  0  0  0  0
  7  8  1  6  0  0  0
  7  1  1  0  0  0  0
  9  7  1  0  0  0  0
  9 10  1  0  0  0  0
  9 24  1  0  0  0  0
 10 11  2  0  0  0  0
 12 13  1  0  0  0  0
 12 10  1  0  0  0  0
 13 27  1  0  0  0  0
 14  4  1  0  0  0  0
 14 29  1  0  0  0  0
 15 14  1  0  0  0  0
 15 16  2  0  0  0  0
 16 31  1  0  0  0  0
 17 16  1  0  0  0  0
 17 32  1  0  0  0  0
 18 17  2  0  0  0  0
 19 20  2  0  0  0  0
 19 18  1  0  0  0  0
 20 15  1  0  0  0  0
 21 23  1  0  0  0  0
 22 21  2  0  0  0  0
 23 36  1  0  0  0  0
 23 38  1  0  0  0  0
 23 37  1  0  0  0  0
 25  9  1  0  0  0  0
 26 13  1  0  0  0  0
 28 13  1  0  0  0  0
 30 14  1  0  0  0  0
 33 18  1  0  0  0  0
 34 19  1  0  0  0  0
 35 20  1  0  0  0  0
M  END
$$$$
