38
rmsd126.gzmat
N          0.00000        0.00000        0.00000
C          1.41660        0.00000        0.00000
O          2.13920        0.00000        0.95970
N          1.83320        0.11630       -1.35420
C          0.74820        0.02890       -2.24600
O          0.82850        0.06020       -3.43980
C         -0.53020       -0.08160       -1.38160
H         -1.21380        0.79000       -1.56610
C         -1.25230       -1.39300       -1.69640
C         -0.43920       -2.59940       -1.32730
O          0.27390       -2.73660       -0.36680
O         -0.62660       -3.57110       -2.24960
C          0.09310       -4.78250       -2.02970
C          3.21720       -0.15740       -1.75020
C          3.40960       -1.63530       -1.97040
C          3.26150       -2.17310       -3.24880
C          3.41300       -3.54380       -3.44470
C          3.70670       -4.37470       -2.36420
C          3.84200       -3.83630       -1.08540
C          3.69300       -2.46580       -0.88640
C         -0.83630       -0.25430        1.11480
O         -2.02420       -0.32200        0.90810
C         -0.17740       -0.37940        2.44190
H         -2.22130       -1.43520       -1.13210
H         -1.53940       -1.41810       -2.77420
H         -0.21700       -5.40740       -2.87450
H         -0.19380       -5.22640       -1.07110
H          1.17230       -4.58520       -2.05180
H          3.90030        0.22810       -0.95270
H          3.43640        0.42860       -2.67690
H          3.01330       -1.52460       -4.08980
H          3.30080       -3.96380       -4.44250
H          3.83420       -5.44410       -2.52050
H          4.06020       -4.48500       -0.23910
H          3.78080       -2.04540        0.11730
H          0.51930       -1.23930        2.46630
H         -0.92160       -0.52630        3.23930
H          0.42990        0.50600        2.69630
