31
rmsd121.gzmat
N          0.00000        0.00000        0.00000
C          1.36410        0.00000        0.00000
N          2.16390        0.00000        1.07690
C          1.52760        0.00380        2.27060
C          0.07010        0.00710        2.37860
C         -0.66440        0.00210        1.17910
N         -2.05730       -0.01040        1.01650
C         -3.02130       -0.01580        2.02570
O         -2.74090        0.01900        3.20340
C         -4.42330       -0.05600        1.53400
C         -5.30410        0.93450        1.96780
C         -6.62990        0.90510        1.54020
C         -7.06840       -0.11490        0.69660
C         -6.18570       -1.11210        0.28130
C         -4.85740       -1.08580        0.69940
N         -0.19630        0.01360        3.74400
H         -1.12960        0.01140        4.12540
C          1.02610        0.01000        4.39940
N          2.06940        0.00520        3.54610
S          2.10950       -0.00310       -1.60950
C          3.88100       -0.03210       -1.20410
H         -2.37130       -0.00370        0.03420
H         -4.95840        1.72020        2.64220
H         -7.32440        1.67630        1.87020
H         -8.10580       -0.13520        0.36300
H         -6.53590       -1.91390       -0.36700
H         -4.17090       -1.87260        0.38480
H          1.11860        0.01260        5.47860
H          4.45450       -0.01060       -2.13540
H          4.15610       -0.93150       -0.63520
H          4.17700        0.82630       -0.58330
