31
rmsd116.gzmat
N          0.00000        0.00000        0.00000
C          1.36430        0.00000        0.00000
N          2.16350        0.00000        1.07690
C          1.52600       -0.00410        2.27100
C          0.06840       -0.00840        2.37750
C         -0.66510       -0.00270        1.17800
N         -2.05690        0.00970        1.00940
C         -3.02580       -0.05050        2.01110
O         -2.74820       -0.09910        3.18940
C         -4.42710       -0.02880        1.51810
C         -5.31680        0.85570        2.12850
C         -6.64540        0.88840        1.71060
C         -7.07640        0.03820        0.69320
C         -6.18460       -0.85290        0.09580
C         -4.85540       -0.89300        0.51010
N         -0.20130       -0.01100        3.74200
H         -1.13570       -0.03950        4.11970
C          1.02000       -0.01440        4.39990
N          2.06520       -0.00620        3.54840
S          2.08300       -0.00850       -1.62180
C          3.86330        0.05950       -1.27150
H         -2.36310        0.06290        0.02560
H         -4.97370        1.51010        2.93250
H         -7.34600        1.57500        2.18350
H         -8.11540        0.06640        0.36550
H         -6.52940       -1.51990       -0.69330
H         -4.16470       -1.60610        0.05820
H          1.10950       -0.01920        5.47950
H          4.40970       -0.24860       -2.16840
H          4.14990       -0.60680       -0.44230
H          4.18210        1.06930       -0.98590
