rmsd116.gzmat
 OpenBabel08211713403D

 31 33  0  0  1  0  0  0  0  0999 V2000
    0.0000    0.0000    0.0000 N   0  0  0  0  0  0  0  0  0  0  0  0
    1.3643    0.0000    0.0000 C   0  0  0  0  0  0  0  0  0  0  0  0
    2.1635    0.0000    1.0769 N   0  0  0  0  0  0  0  0  0  0  0  0
    1.5260   -0.0041    2.2710 C   0  0  0  0  0  0  0  0  0  0  0  0
    0.0684   -0.0084    2.3775 C   0  0  2  0  0  0  0  0  0  0  0  0
   -0.6651   -0.0027    1.1780 C   0  0  0  0  0  0  0  0  0  0  0  0
   -2.0569    0.0097    1.0094 N   0  0  0  0  0  0  0  0  0  0  0  0
   -3.0258   -0.0505    2.0111 C   0  0  0  0  0  0  0  0  0  0  0  0
   -2.7482   -0.0991    3.1894 O   0  0  0  0  0  0  0  0  0  0  0  0
   -4.4271   -0.0288    1.5181 C   0  0  0  0  0  0  0  0  0  0  0  0
   -5.3168    0.8557    2.1285 C   0  0  0  0  0  0  0  0  0  0  0  0
   -6.6454    0.8884    1.7106 C   0  0  0  0  0  0  0  0  0  0  0  0
   -7.0764    0.0382    0.6932 C   0  0  0  0  0  0  0  0  0  0  0  0
   -6.1846   -0.8529    0.0958 C   0  0  0  0  0  0  0  0  0  0  0  0
   -4.8554   -0.8930    0.5101 C   0  0  0  0  0  0  0  0  0  0  0  0
   -0.2013   -0.0110    3.7420 N   0  0  0  0  0  0  0  0  0  0  0  0
   -1.1357   -0.0395    4.1197 H   0  0  0  0  0  0  0  0  0  0  0  0
    1.0200   -0.0144    4.3999 C   0  0  0  0  0  0  0  0  0  0  0  0
    2.0652   -0.0062    3.5484 N   0  0  0  0  0  0  0  0  0  0  0  0
    2.0830   -0.0085   -1.6218 S   0  0  0  0  0  0  0  0  0  0  0  0
    3.8633    0.0595   -1.2715 C   0  0  0  0  0  0  0  0  0  0  0  0
   -2.3631    0.0629    0.0256 H   0  0  0  0  0  0  0  0  0  0  0  0
   -4.9737    1.5101    2.9325 H   0  0  0  0  0  0  0  0  0  0  0  0
   -7.3460    1.5750    2.1835 H   0  0  0  0  0  0  0  0  0  0  0  0
   -8.1154    0.0664    0.3655 H   0  0  0  0  0  0  0  0  0  0  0  0
   -6.5294   -1.5199   -0.6933 H   0  0  0  0  0  0  0  0  0  0  0  0
   -4.1647   -1.6061    0.0582 H   0  0  0  0  0  0  0  0  0  0  0  0
    1.1095   -0.0192    5.4795 H   0  0  0  0  0  0  0  0  0  0  0  0
    4.4097   -0.2486   -2.1684 H   0  0  0  0  0  0  0  0  0  0  0  0
    4.1499   -0.6068   -0.4423 H   0  0  0  0  0  0  0  0  0  0  0  0
    4.1821    1.0693   -0.9859 H   0  0  0  0  0  0  0  0  0  0  0  0
  1  2  2  0  0  0  0
  1  6  2  0  0  0  0
  2  3  2  0  0  0  0
  3  4  2  0  0  0  0
  4 19  2  0  0  0  0
  5  4  1  1  0  0  0
  5  6  1  0  0  0  0
  5 16  1  0  0  0  0
  7  6  1  0  0  0  0
  7  8  1  0  0  0  0
  8  9  2  0  0  0  0
 10  8  1  0  0  0  0
 10 11  2  0  0  0  0
 11 23  1  0  0  0  0
 12 11  1  0  0  0  0
 12 24  1  0  0  0  0
 13 12  2  0  0  0  0
 14 15  2  0  0  0  0
 14 13  1  0  0  0  0
 15 10  1  0  0  0  0
 16 17  1  0  0  0  0
 16 18  1  0  0  0  0
 18 28  1  0  0  0  0
 19 18  2  0  0  0  0
 20 21  1  0  0  0  0
 20  2  1  0  0  0  0
 21 31  1  0  0  0  0
 21 30  1  0  0  0  0
 22  7  1  0  0  0  0
 25 13  1  0  0  0  0
 26 14  1  0  0  0  0
 27 15  1  0  0  0  0
 29 21  1  0  0  0  0
M  RAD  1   5   2
M  END
$$$$
