rmsd121.gzmat
 OpenBabel08211713403D

 31 33  0  0  1  0  0  0  0  0999 V2000
    0.0000    0.0000    0.0000 N   0  0  0  0  0  0  0  0  0  0  0  0
    1.3641    0.0000    0.0000 C   0  0  0  0  0  0  0  0  0  0  0  0
    2.1639    0.0000    1.0769 N   0  0  0  0  0  0  0  0  0  0  0  0
    1.5276    0.0038    2.2706 C   0  0  0  0  0  0  0  0  0  0  0  0
    0.0701    0.0071    2.3786 C   0  0  1  0  0  0  0  0  0  0  0  0
   -0.6644    0.0021    1.1791 C   0  0  0  0  0  0  0  0  0  0  0  0
   -2.0573   -0.0104    1.0165 N   0  0  0  0  0  0  0  0  0  0  0  0
   -3.0213   -0.0158    2.0257 C   0  0  0  0  0  0  0  0  0  0  0  0
   -2.7409    0.0190    3.2034 O   0  0  0  0  0  0  0  0  0  0  0  0
   -4.4233   -0.0560    1.5340 C   0  0  0  0  0  0  0  0  0  0  0  0
   -5.3041    0.9345    1.9678 C   0  0  0  0  0  0  0  0  0  0  0  0
   -6.6299    0.9051    1.5402 C   0  0  0  0  0  0  0  0  0  0  0  0
   -7.0684   -0.1149    0.6966 C   0  0  0  0  0  0  0  0  0  0  0  0
   -6.1857   -1.1121    0.2813 C   0  0  0  0  0  0  0  0  0  0  0  0
   -4.8574   -1.0858    0.6994 C   0  0  0  0  0  0  0  0  0  0  0  0
   -0.1963    0.0136    3.7440 N   0  0  0  0  0  0  0  0  0  0  0  0
   -1.1296    0.0114    4.1254 H   0  0  0  0  0  0  0  0  0  0  0  0
    1.0261    0.0100    4.3994 C   0  0  0  0  0  0  0  0  0  0  0  0
    2.0694    0.0052    3.5461 N   0  0  0  0  0  0  0  0  0  0  0  0
    2.1095   -0.0031   -1.6095 S   0  0  0  0  0  0  0  0  0  0  0  0
    3.8810   -0.0321   -1.2041 C   0  0  0  0  0  0  0  0  0  0  0  0
   -2.3713   -0.0037    0.0342 H   0  0  0  0  0  0  0  0  0  0  0  0
   -4.9584    1.7202    2.6422 H   0  0  0  0  0  0  0  0  0  0  0  0
   -7.3244    1.6763    1.8702 H   0  0  0  0  0  0  0  0  0  0  0  0
   -8.1058   -0.1352    0.3630 H   0  0  0  0  0  0  0  0  0  0  0  0
   -6.5359   -1.9139   -0.3670 H   0  0  0  0  0  0  0  0  0  0  0  0
   -4.1709   -1.8726    0.3848 H   0  0  0  0  0  0  0  0  0  0  0  0
    1.1186    0.0126    5.4786 H   0  0  0  0  0  0  0  0  0  0  0  0
    4.4545   -0.0106   -2.1354 H   0  0  0  0  0  0  0  0  0  0  0  0
    4.1561   -0.9315   -0.6352 H   0  0  0  0  0  0  0  0  0  0  0  0
    4.1770    0.8263   -0.5833 H   0  0  0  0  0  0  0  0  0  0  0  0
  1  2  2  0  0  0  0
  1  6  2  0  0  0  0
  2  3  2  0  0  0  0
  3  4  2  0  0  0  0
  4 19  2  0  0  0  0
  5  4  1  1  0  0  0
  5  6  1  0  0  0  0
  5 16  1  0  0  0  0
  7  6  1  0  0  0  0
  7  8  1  0  0  0  0
  8  9  2  0  0  0  0
 10 11  1  0  0  0  0
 10  8  1  0  0  0  0
 11 23  1  0  0  0  0
 12 24  1  0  0  0  0
 12 11  2  0  0  0  0
 13 12  1  0  0  0  0
 14 13  2  0  0  0  0
 14 15  1  0  0  0  0
 15 10  2  0  0  0  0
 16 17  1  0  0  0  0
 16 18  1  0  0  0  0
 18 28  1  0  0  0  0
 19 18  2  0  0  0  0
 20 21  1  0  0  0  0
 20  2  1  0  0  0  0
 21 30  1  0  0  0  0
 21 31  1  0  0  0  0
 22  7  1  0  0  0  0
 25 13  1  0  0  0  0
 26 14  1  0  0  0  0
 27 15  1  0  0  0  0
 29 21  1  0  0  0  0
M  RAD  1   5   2
M  END
$$$$
