rmsd158.gzmat
 OpenBabel08211713403D

 31 33  0  0  1  0  0  0  0  0999 V2000
    0.0000    0.0000    0.0000 N   0  0  0  0  0  0  0  0  0  0  0  0
    1.3643    0.0000    0.0000 C   0  0  0  0  0  0  0  0  0  0  0  0
    2.1636    0.0000    1.0770 N   0  0  0  0  0  0  0  0  0  0  0  0
    1.5256    0.0058    2.2709 C   0  0  0  0  0  0  0  0  0  0  0  0
    0.0682    0.0112    2.3777 C   0  0  1  0  0  0  0  0  0  0  0  0
   -0.6652    0.0045    1.1776 C   0  0  0  0  0  0  0  0  0  0  0  0
   -2.0573   -0.0171    1.0123 N   0  0  0  0  0  0  0  0  0  0  0  0
   -3.0228    0.0751    2.0149 C   0  0  0  0  0  0  0  0  0  0  0  0
   -2.7461    0.1875    3.1880 O   0  0  0  0  0  0  0  0  0  0  0  0
   -4.4210    0.0268    1.5123 C   0  0  0  0  0  0  0  0  0  0  0  0
   -5.2395    1.1380    1.7093 C   0  0  0  0  0  0  0  0  0  0  0  0
   -6.5622    1.0970    1.2726 C   0  0  0  0  0  0  0  0  0  0  0  0
   -7.0573   -0.0512    0.6552 C   0  0  0  0  0  0  0  0  0  0  0  0
   -6.2350   -1.1633    0.4744 C   0  0  0  0  0  0  0  0  0  0  0  0
   -4.9096   -1.1275    0.9011 C   0  0  0  0  0  0  0  0  0  0  0  0
   -0.2013    0.0115    3.7424 N   0  0  0  0  0  0  0  0  0  0  0  0
   -1.1347    0.0537    4.1211 H   0  0  0  0  0  0  0  0  0  0  0  0
    1.0203    0.0137    4.3999 C   0  0  0  0  0  0  0  0  0  0  0  0
    2.0648    0.0049    3.5481 N   0  0  0  0  0  0  0  0  0  0  0  0
    2.0871   -0.0031   -1.6197 S   0  0  0  0  0  0  0  0  0  0  0  0
    3.8659    0.0233   -1.2553 C   0  0  0  0  0  0  0  0  0  0  0  0
   -2.3686   -0.0602    0.0294 H   0  0  0  0  0  0  0  0  0  0  0  0
   -4.8478    2.0278    2.2052 H   0  0  0  0  0  0  0  0  0  0  0  0
   -7.2103    1.9601    1.4175 H   0  0  0  0  0  0  0  0  0  0  0  0
   -8.0915   -0.0805    0.3128 H   0  0  0  0  0  0  0  0  0  0  0  0
   -6.6303   -2.0616    0.0025 H   0  0  0  0  0  0  0  0  0  0  0  0
   -4.2664   -1.9981    0.7667 H   0  0  0  0  0  0  0  0  0  0  0  0
    1.1104    0.0146    5.4795 H   0  0  0  0  0  0  0  0  0  0  0  0
    4.4163   -0.1371   -2.1879 H   0  0  0  0  0  0  0  0  0  0  0  0
    4.1528   -0.7600   -0.5373 H   0  0  0  0  0  0  0  0  0  0  0  0
    4.1788    0.9786   -0.8141 H   0  0  0  0  0  0  0  0  0  0  0  0
  1  2  2  0  0  0  0
  1  6  2  0  0  0  0
  2  3  2  0  0  0  0
  3  4  2  0  0  0  0
  4 19  2  0  0  0  0
  5  4  1  1  0  0  0
  5  6  1  0  0  0  0
  5 16  1  0  0  0  0
  7  6  1  0  0  0  0
  7  8  1  0  0  0  0
  8  9  2  0  0  0  0
 10 11  1  0  0  0  0
 10  8  1  0  0  0  0
 11 23  1  0  0  0  0
 12 24  1  0  0  0  0
 12 11  2  0  0  0  0
 13 12  1  0  0  0  0
 14 13  2  0  0  0  0
 14 15  1  0  0  0  0
 15 10  2  0  0  0  0
 16 17  1  0  0  0  0
 16 18  1  0  0  0  0
 18 28  1  0  0  0  0
 19 18  2  0  0  0  0
 20 21  1  0  0  0  0
 20  2  1  0  0  0  0
 21 31  1  0  0  0  0
 21 30  1  0  0  0  0
 22  7  1  0  0  0  0
 25 13  1  0  0  0  0
 26 14  1  0  0  0  0
 27 15  1  0  0  0  0
 29 21  1  0  0  0  0
M  RAD  1   5   2
M  END
$$$$
