31
rmsd130.gzmat
N          0.00000        0.00000        0.00000
C          1.36460        0.00000        0.00000
N          2.16330        0.00000        1.07710
C          1.52510        0.00150        2.27080
C          0.06770        0.00540        2.37750
C         -0.66560        0.00390        1.17750
N         -2.05780       -0.00820        1.01150
C         -3.02360        0.07430        2.01540
O         -2.74430        0.17100        3.18980
C         -4.42420        0.04400        1.51990
C         -4.88370       -1.02130        0.74600
C         -6.21180       -1.03740        0.32740
C         -7.06820        0.00560        0.68050
C         -6.60310        1.06440        1.45950
C         -5.27750        1.08420        1.88800
N         -0.20180        0.00000        3.74220
H         -1.13540        0.03640        4.12130
C          1.01970        0.00050        4.39940
N          2.06440       -0.00340        3.54740
S          2.08220       -0.00740       -1.62250
C          3.86160        0.12070       -1.28170
H         -2.36800       -0.03570        0.02760
H         -4.21750       -1.84240        0.47890
H         -6.58190       -1.86650       -0.27370
H         -8.10580       -0.00900        0.34820
H         -7.27710        1.87340        1.73750
H         -4.90990        1.90090        2.51220
H          1.11030       -0.00240        5.47910
H          4.41400       -0.25910       -2.14690
H          4.16210       -0.46510       -0.39770
H          4.16320        1.15700       -1.09000
