31
rmsd158.gzmat
N          0.00000        0.00000        0.00000
C          1.36430        0.00000        0.00000
N          2.16360        0.00000        1.07700
C          1.52560        0.00580        2.27090
C          0.06820        0.01120        2.37770
C         -0.66520        0.00450        1.17760
N         -2.05730       -0.01710        1.01230
C         -3.02280        0.07510        2.01490
O         -2.74610        0.18750        3.18800
C         -4.42100        0.02680        1.51230
C         -5.23950        1.13800        1.70930
C         -6.56220        1.09700        1.27260
C         -7.05730       -0.05120        0.65520
C         -6.23500       -1.16330        0.47440
C         -4.90960       -1.12750        0.90110
N         -0.20130        0.01150        3.74240
H         -1.13470        0.05370        4.12110
C          1.02030        0.01370        4.39990
N          2.06480        0.00490        3.54810
S          2.08710       -0.00310       -1.61970
C          3.86590        0.02330       -1.25530
H         -2.36860       -0.06020        0.02940
H         -4.84780        2.02780        2.20520
H         -7.21030        1.96010        1.41750
H         -8.09150       -0.08050        0.31280
H         -6.63030       -2.06160        0.00250
H         -4.26640       -1.99810        0.76670
H          1.11040        0.01460        5.47950
H          4.41630       -0.13710       -2.18790
H          4.15280       -0.76000       -0.53730
H          4.17880        0.97860       -0.81410
