rmsd130.gzmat
 OpenBabel08211713403D

 31 33  0  0  1  0  0  0  0  0999 V2000
    0.0000    0.0000    0.0000 N   0  0  0  0  0  0  0  0  0  0  0  0
    1.3646    0.0000    0.0000 C   0  0  0  0  0  0  0  0  0  0  0  0
    2.1633    0.0000    1.0771 N   0  0  0  0  0  0  0  0  0  0  0  0
    1.5251    0.0015    2.2708 C   0  0  0  0  0  0  0  0  0  0  0  0
    0.0677    0.0054    2.3775 C   0  0  1  0  0  0  0  0  0  0  0  0
   -0.6656    0.0039    1.1775 C   0  0  0  0  0  0  0  0  0  0  0  0
   -2.0578   -0.0082    1.0115 N   0  0  0  0  0  0  0  0  0  0  0  0
   -3.0236    0.0743    2.0154 C   0  0  0  0  0  0  0  0  0  0  0  0
   -2.7443    0.1710    3.1898 O   0  0  0  0  0  0  0  0  0  0  0  0
   -4.4242    0.0440    1.5199 C   0  0  0  0  0  0  0  0  0  0  0  0
   -4.8837   -1.0213    0.7460 C   0  0  0  0  0  0  0  0  0  0  0  0
   -6.2118   -1.0374    0.3274 C   0  0  0  0  0  0  0  0  0  0  0  0
   -7.0682    0.0056    0.6805 C   0  0  0  0  0  0  0  0  0  0  0  0
   -6.6031    1.0644    1.4595 C   0  0  0  0  0  0  0  0  0  0  0  0
   -5.2775    1.0842    1.8880 C   0  0  0  0  0  0  0  0  0  0  0  0
   -0.2018    0.0000    3.7422 N   0  0  0  0  0  0  0  0  0  0  0  0
   -1.1354    0.0364    4.1213 H   0  0  0  0  0  0  0  0  0  0  0  0
    1.0197    0.0005    4.3994 C   0  0  0  0  0  0  0  0  0  0  0  0
    2.0644   -0.0034    3.5474 N   0  0  0  0  0  0  0  0  0  0  0  0
    2.0822   -0.0074   -1.6225 S   0  0  0  0  0  0  0  0  0  0  0  0
    3.8616    0.1207   -1.2817 C   0  0  0  0  0  0  0  0  0  0  0  0
   -2.3680   -0.0357    0.0276 H   0  0  0  0  0  0  0  0  0  0  0  0
   -4.2175   -1.8424    0.4789 H   0  0  0  0  0  0  0  0  0  0  0  0
   -6.5819   -1.8665   -0.2737 H   0  0  0  0  0  0  0  0  0  0  0  0
   -8.1058   -0.0090    0.3482 H   0  0  0  0  0  0  0  0  0  0  0  0
   -7.2771    1.8734    1.7375 H   0  0  0  0  0  0  0  0  0  0  0  0
   -4.9099    1.9009    2.5122 H   0  0  0  0  0  0  0  0  0  0  0  0
    1.1103   -0.0024    5.4791 H   0  0  0  0  0  0  0  0  0  0  0  0
    4.4140   -0.2591   -2.1469 H   0  0  0  0  0  0  0  0  0  0  0  0
    4.1621   -0.4651   -0.3977 H   0  0  0  0  0  0  0  0  0  0  0  0
    4.1632    1.1570   -1.0900 H   0  0  0  0  0  0  0  0  0  0  0  0
  1  2  2  0  0  0  0
  1  6  2  0  0  0  0
  2  3  2  0  0  0  0
  3  4  2  0  0  0  0
  4 19  2  0  0  0  0
  5  4  1  6  0  0  0
  5  6  1  0  0  0  0
  5 16  1  0  0  0  0
  7  6  1  0  0  0  0
  7  8  1  0  0  0  0
  8  9  2  0  0  0  0
 10 15  1  0  0  0  0
 10  8  1  0  0  0  0
 11 10  2  0  0  0  0
 12 13  2  0  0  0  0
 12 11  1  0  0  0  0
 13 14  1  0  0  0  0
 14 26  1  0  0  0  0
 14 15  2  0  0  0  0
 15 27  1  0  0  0  0
 16 17  1  0  0  0  0
 16 18  1  0  0  0  0
 18 28  1  0  0  0  0
 19 18  2  0  0  0  0
 20 21  1  0  0  0  0
 20  2  1  0  0  0  0
 21 31  1  0  0  0  0
 21 30  1  0  0  0  0
 22  7  1  0  0  0  0
 23 11  1  0  0  0  0
 24 12  1  0  0  0  0
 25 13  1  0  0  0  0
 29 21  1  0  0  0  0
M  RAD  1   5   2
M  END
$$$$
