31
rmsd18.gzmat
N          0.00000        0.00000        0.00000
C          1.36430        0.00000        0.00000
N          2.16380        0.00000        1.07650
C          1.52570        0.00170        2.27040
C          0.06810        0.00390        2.37750
C         -0.66550        0.00230        1.17770
N         -2.05720       -0.00620        1.00850
C         -3.02620        0.02560        2.01160
O         -2.74840        0.08390        3.18940
C         -4.42770        0.00100        1.51920
C         -4.85670       -0.95720        0.60080
C         -6.18720       -0.96100        0.18880
C         -7.07840       -0.01390        0.69400
C         -6.64560        0.93460        1.61970
C         -5.31720        0.94180        2.03980
N         -0.20090        0.00240        3.74210
H         -1.13520        0.02130        4.12080
C          1.02060        0.00370        4.39930
N          2.06520        0.00090        3.54710
S          2.08620        0.00030       -1.61990
C          3.86550        0.00080       -1.25730
H         -2.36370       -0.00720        0.02330
H         -4.16530       -1.70780        0.21530
H         -6.53290       -1.70670       -0.52570
H         -8.11780       -0.01790        0.36630
H         -7.34560        1.66780        2.01830
H         -4.97340        1.67210        2.77530
H          1.11130        0.00320        5.47880
H          4.41190        0.02610       -2.20530
H          4.17140       -0.89050       -0.69220
H          4.16300        0.86870       -0.65130
