rmsd110.gzmat
 OpenBabel08211713403D

 31 33  0  0  1  0  0  0  0  0999 V2000
    0.0000    0.0000    0.0000 N   0  0  0  0  0  0  0  0  0  0  0  0
    1.3643    0.0000    0.0000 C   0  0  0  0  0  0  0  0  0  0  0  0
    2.1633    0.0000    1.0771 N   0  0  0  0  0  0  0  0  0  0  0  0
    1.5259    0.0026    2.2710 C   0  0  0  0  0  0  0  0  0  0  0  0
    0.0684    0.0041    2.3777 C   0  0  1  0  0  0  0  0  0  0  0  0
   -0.6650    0.0010    1.1782 C   0  0  0  0  0  0  0  0  0  0  0  0
   -2.0568   -0.0154    1.0111 N   0  0  0  0  0  0  0  0  0  0  0  0
   -3.0238    0.0008    2.0166 C   0  0  0  0  0  0  0  0  0  0  0  0
   -2.7449    0.0656    3.1937 O   0  0  0  0  0  0  0  0  0  0  0  0
   -4.4250   -0.0562    1.5264 C   0  0  0  0  0  0  0  0  0  0  0  0
   -4.8289   -1.0304    0.6134 C   0  0  0  0  0  0  0  0  0  0  0  0
   -6.1567   -1.0658    0.1952 C   0  0  0  0  0  0  0  0  0  0  0  0
   -7.0705   -0.1356    0.6909 C   0  0  0  0  0  0  0  0  0  0  0  0
   -6.6633    0.8267    1.6140 C   0  0  0  0  0  0  0  0  0  0  0  0
   -5.3372    0.8660    2.0400 C   0  0  0  0  0  0  0  0  0  0  0  0
   -0.2006    0.0031    3.7425 N   0  0  0  0  0  0  0  0  0  0  0  0
   -1.1348    0.0226    4.1212 H   0  0  0  0  0  0  0  0  0  0  0  0
    1.0206    0.0055    4.3998 C   0  0  0  0  0  0  0  0  0  0  0  0
    2.0653    0.0028    3.5478 N   0  0  0  0  0  0  0  0  0  0  0  0
    2.0871    0.0048   -1.6197 S   0  0  0  0  0  0  0  0  0  0  0  0
    3.8664   -0.0581   -1.2636 C   0  0  0  0  0  0  0  0  0  0  0  0
   -2.3654   -0.0170    0.0263 H   0  0  0  0  0  0  0  0  0  0  0  0
   -4.1193   -1.7687    0.2373 H   0  0  0  0  0  0  0  0  0  0  0  0
   -6.4825   -1.8223   -0.5173 H   0  0  0  0  0  0  0  0  0  0  0  0
   -8.1077   -0.1643    0.3578 H   0  0  0  0  0  0  0  0  0  0  0  0
   -7.3820    1.5449    2.0062 H   0  0  0  0  0  0  0  0  0  0  0  0
   -5.0128    1.6055    2.7755 H   0  0  0  0  0  0  0  0  0  0  0  0
    1.1111    0.0053    5.4794 H   0  0  0  0  0  0  0  0  0  0  0  0
    4.4132    0.2878   -2.1461 H   0  0  0  0  0  0  0  0  0  0  0  0
    4.1947   -1.0735   -1.0130 H   0  0  0  0  0  0  0  0  0  0  0  0
    4.1447    0.5822   -0.4109 H   0  0  0  0  0  0  0  0  0  0  0  0
  1  2  2  0  0  0  0
  1  6  2  0  0  0  0
  2  3  2  0  0  0  0
  3  4  2  0  0  0  0
  4 19  2  0  0  0  0
  5  4  1  1  0  0  0
  5  6  1  0  0  0  0
  5 16  1  0  0  0  0
  7  6  1  0  0  0  0
  7  8  1  0  0  0  0
  8  9  2  0  0  0  0
 10  8  1  0  0  0  0
 10 15  2  0  0  0  0
 11 10  1  0  0  0  0
 12 11  2  0  0  0  0
 12 13  1  0  0  0  0
 13 14  2  0  0  0  0
 14 26  1  0  0  0  0
 14 15  1  0  0  0  0
 15 27  1  0  0  0  0
 16 17  1  0  0  0  0
 16 18  1  0  0  0  0
 18 28  1  0  0  0  0
 19 18  2  0  0  0  0
 20 21  1  0  0  0  0
 20  2  1  0  0  0  0
 21 30  1  0  0  0  0
 21 31  1  0  0  0  0
 22  7  1  0  0  0  0
 23 11  1  0  0  0  0
 24 12  1  0  0  0  0
 25 13  1  0  0  0  0
 29 21  1  0  0  0  0
M  RAD  1   5   2
M  END
$$$$
