rmsd205.gzmat
 OpenBabel08211713363D

 54 56  0  0  1  0  0  0  0  0999 V2000
    0.0000    0.0000    0.0000 Cl  0  0  0  0  0  0  0  0  0  0  0  0
    1.7045    0.0000    0.0000 C   0  0  0  0  0  0  0  0  0  0  0  0
    2.4101    0.0000    1.2416 C   0  0  0  0  0  0  0  0  0  0  0  0
    1.7350   -0.0206    2.4168 N   0  0  0  0  0  0  0  0  0  0  0  0
    2.4173   -0.0162    3.7090 C   0  0  0  0  0  0  0  0  0  0  0  0
    3.8245    0.0182    1.1814 C   0  0  0  0  0  0  0  0  0  0  0  0
    4.4627    0.0116   -0.0503 C   0  0  0  0  0  0  0  0  0  0  0  0
    5.8070    0.0413   -0.2003 O   0  0  0  0  0  0  0  0  0  0  0  0
    6.6248    0.1152    0.9632 C   0  0  0  0  0  0  0  0  0  0  0  0
    3.7572   -0.0147   -1.2732 C   0  0  0  0  0  0  0  0  0  0  0  0
    2.3493    0.0021   -1.2102 C   0  0  0  0  0  0  0  0  0  0  0  0
    4.3462   -0.0144   -2.6052 C   0  0  0  0  0  0  0  0  0  0  0  0
    3.6884    0.3839   -3.5737 O   0  0  0  0  0  0  0  0  0  0  0  0
    5.6198   -0.5242   -2.7846 N   0  0  0  0  0  0  0  0  0  0  0  0
    6.3537   -0.5036   -4.0460 C   0  0  1  0  0  0  0  0  0  0  0  0
    7.3217   -1.0486   -3.8798 H   0  0  0  0  0  0  0  0  0  0  0  0
    5.5610   -1.1862   -5.1917 C   0  0  0  0  0  0  0  0  0  0  0  0
    4.8106   -0.0390   -5.8258 N   0  0  0  0  0  0  0  0  0  0  0  0
    4.0234    0.2349   -5.0913 H   0  0  0  0  0  0  0  0  0  0  0  0
    5.8119    1.1187   -5.8665 C   0  0  1  0  0  0  0  0  0  0  0  0
    6.4656    0.9995   -6.7657 H   0  0  0  0  0  0  0  0  0  0  0  0
    5.0655    2.4396   -5.9070 C   0  0  0  0  0  0  0  0  0  0  0  0
    6.6264    0.9354   -4.5682 C   0  0  0  0  0  0  0  0  0  0  0  0
    4.2052   -0.3896   -7.1548 C   0  0  0  0  0  0  0  0  0  0  0  0
    3.1587   -1.4438   -6.9378 C   0  0  0  0  0  0  0  0  0  0  0  0
    2.0007   -1.1316   -6.2222 C   0  0  0  0  0  0  0  0  0  0  0  0
    1.0466   -2.1180   -5.9860 C   0  0  0  0  0  0  0  0  0  0  0  0
    1.2427   -3.4088   -6.4751 C   0  0  0  0  0  0  0  0  0  0  0  0
    2.3920   -3.7139   -7.2025 C   0  0  0  0  0  0  0  0  0  0  0  0
    3.3537   -2.7330   -7.4339 C   0  0  0  0  0  0  0  0  0  0  0  0
    0.7226   -0.0160    2.4397 H   0  0  0  0  0  0  0  0  0  0  0  0
    3.1040   -0.8782    3.8069 H   0  0  0  0  0  0  0  0  0  0  0  0
    1.6750   -0.0858    4.5263 H   0  0  0  0  0  0  0  0  0  0  0  0
    2.9976    0.9149    3.8562 H   0  0  0  0  0  0  0  0  0  0  0  0
    4.3977    0.0393    2.1008 H   0  0  0  0  0  0  0  0  0  0  0  0
    7.6354    0.1531    0.5317 H   0  0  0  0  0  0  0  0  0  0  0  0
    6.4997   -0.7804    1.5816 H   0  0  0  0  0  0  0  0  0  0  0  0
    6.4136    1.0326    1.5251 H   0  0  0  0  0  0  0  0  0  0  0  0
    1.7816    0.0173   -2.1537 H   0  0  0  0  0  0  0  0  0  0  0  0
    6.1535   -0.8002   -1.9626 H   0  0  0  0  0  0  0  0  0  0  0  0
    4.8474   -1.9549   -4.8200 H   0  0  0  0  0  0  0  0  0  0  0  0
    6.2332   -1.6824   -5.9182 H   0  0  0  0  0  0  0  0  0  0  0  0
    4.3449    2.5418   -5.0759 H   0  0  0  0  0  0  0  0  0  0  0  0
    4.5110    2.5917   -6.8426 H   0  0  0  0  0  0  0  0  0  0  0  0
    5.7607    3.2900   -5.8162 H   0  0  0  0  0  0  0  0  0  0  0  0
    7.7032    1.0968   -4.7482 H   0  0  0  0  0  0  0  0  0  0  0  0
    6.3437    1.6860   -3.8028 H   0  0  0  0  0  0  0  0  0  0  0  0
    3.7514    0.5317   -7.5985 H   0  0  0  0  0  0  0  0  0  0  0  0
    4.9938   -0.7211   -7.8680 H   0  0  0  0  0  0  0  0  0  0  0  0
    1.8354   -0.1228   -5.8423 H   0  0  0  0  0  0  0  0  0  0  0  0
    0.1430   -1.8781   -5.4229 H   0  0  0  0  0  0  0  0  0  0  0  0
    0.4928   -4.1812   -6.2928 H   0  0  0  0  0  0  0  0  0  0  0  0
    2.5375   -4.7216   -7.5952 H   0  0  0  0  0  0  0  0  0  0  0  0
    4.2457   -2.9792   -8.0075 H   0  0  0  0  0  0  0  0  0  0  0  0
  2  1  1  0  0  0  0
  2  3  2  0  0  0  0
  3  4  1  0  0  0  0
  4 31  1  0  0  0  0
  4  5  1  0  0  0  0
  5 32  1  0  0  0  0
  5 34  1  0  0  0  0
  5 33  1  0  0  0  0
  6  3  1  0  0  0  0
  6 35  1  0  0  0  0
  7  6  2  0  0  0  0
  8  7  1  0  0  0  0
  8  9  1  0  0  0  0
  9 38  1  0  0  0  0
  9 37  1  0  0  0  0
 10 11  2  0  0  0  0
 10  7  1  0  0  0  0
 11  2  1  0  0  0  0
 12 10  1  0  0  0  0
 13 12  2  0  0  0  0
 14 12  1  0  0  0  0
 14 40  1  0  0  0  0
 15 16  1  1  0  0  0
 15 14  1  0  0  0  0
 17 41  1  0  0  0  0
 17 15  1  0  0  0  0
 18 17  1  0  0  0  0
 18 19  1  0  0  0  0
 20 21  1  6  0  0  0
 20 18  1  0  0  0  0
 20 23  1  0  0  0  0
 22 20  1  0  0  0  0
 22 45  1  0  0  0  0
 22 43  1  0  0  0  0
 23 15  1  0  0  0  0
 23 47  1  0  0  0  0
 24 25  1  0  0  0  0
 24 18  1  0  0  0  0
 25 26  2  0  0  0  0
 26 27  1  0  0  0  0
 26 50  1  0  0  0  0
 27 51  1  0  0  0  0
 28 52  1  0  0  0  0
 28 27  2  0  0  0  0
 29 28  1  0  0  0  0
 30 29  2  0  0  0  0
 30 25  1  0  0  0  0
 36  9  1  0  0  0  0
 39 11  1  0  0  0  0
 42 17  1  0  0  0  0
 44 22  1  0  0  0  0
 46 23  1  0  0  0  0
 48 24  1  0  0  0  0
 49 24  1  0  0  0  0
 53 29  1  0  0  0  0
 54 30  1  0  0  0  0
M  END
$$$$
