rmsd82.gzmat
 OpenBabel08211713363D

 54 56  0  0  1  0  0  0  0  0999 V2000
    0.0000    0.0000    0.0000 Cl  0  0  0  0  0  0  0  0  0  0  0  0
    1.7045    0.0000    0.0000 C   0  0  0  0  0  0  0  0  0  0  0  0
    2.4115    0.0000    1.2406 C   0  0  0  0  0  0  0  0  0  0  0  0
    1.7386   -0.0110    2.4171 N   0  0  0  0  0  0  0  0  0  0  0  0
    2.4235   -0.0142    3.7080 C   0  0  0  0  0  0  0  0  0  0  0  0
    3.8259    0.0138    1.1793 C   0  0  0  0  0  0  0  0  0  0  0  0
    4.4627    0.0088   -0.0530 C   0  0  0  0  0  0  0  0  0  0  0  0
    5.8071    0.0358   -0.2056 O   0  0  0  0  0  0  0  0  0  0  0  0
    6.6254    0.1245    0.9565 C   0  0  0  0  0  0  0  0  0  0  0  0
    3.7554   -0.0144   -1.2744 C   0  0  0  0  0  0  0  0  0  0  0  0
    2.3482    0.0034   -1.2111 C   0  0  0  0  0  0  0  0  0  0  0  0
    4.3475   -0.0138   -2.6055 C   0  0  0  0  0  0  0  0  0  0  0  0
    3.7100    0.4166   -3.5721 O   0  0  0  0  0  0  0  0  0  0  0  0
    5.6032   -0.5676   -2.7831 N   0  0  0  0  0  0  0  0  0  0  0  0
    6.3372   -0.5689   -4.0438 C   0  0  1  0  0  0  0  0  0  0  0  0
    7.2710   -1.1733   -3.8869 H   0  0  0  0  0  0  0  0  0  0  0  0
    5.5069   -1.1824   -5.2017 C   0  0  0  0  0  0  0  0  0  0  0  0
    4.8354    0.0172   -5.8278 N   0  0  0  0  0  0  0  0  0  0  0  0
    4.0521    0.3213   -5.1059 H   0  0  0  0  0  0  0  0  0  0  0  0
    5.9021    1.1160   -5.8349 C   0  0  1  0  0  0  0  0  0  0  0  0
    6.5528    0.9790   -6.7341 H   0  0  0  0  0  0  0  0  0  0  0  0
    5.2348    2.4790   -5.8506 C   0  0  0  0  0  0  0  0  0  0  0  0
    6.6973    0.8602   -4.5379 C   0  0  0  0  0  0  0  0  0  0  0  0
    4.2400   -0.2769   -7.1758 C   0  0  0  0  0  0  0  0  0  0  0  0
    3.0858   -1.2186   -6.9942 C   0  0  0  0  0  0  0  0  0  0  0  0
    1.9204   -0.7690   -6.3697 C   0  0  0  0  0  0  0  0  0  0  0  0
    0.8564   -1.6466   -6.1772 C   0  0  0  0  0  0  0  0  0  0  0  0
    0.9528   -2.9666   -6.6159 C   0  0  0  0  0  0  0  0  0  0  0  0
    2.1137   -3.4104   -7.2481 C   0  0  0  0  0  0  0  0  0  0  0  0
    3.1828   -2.5377   -7.4381 C   0  0  0  0  0  0  0  0  0  0  0  0
    0.7266   -0.0180    2.4417 H   0  0  0  0  0  0  0  0  0  0  0  0
    3.0602   -0.9115    3.8251 H   0  0  0  0  0  0  0  0  0  0  0  0
    1.6808   -0.0191    4.5279 H   0  0  0  0  0  0  0  0  0  0  0  0
    3.0561    0.8851    3.8326 H   0  0  0  0  0  0  0  0  0  0  0  0
    4.4002    0.0295    2.0981 H   0  0  0  0  0  0  0  0  0  0  0  0
    7.6353    0.1611    0.5242 H   0  0  0  0  0  0  0  0  0  0  0  0
    6.5029   -0.7639    1.5847 H   0  0  0  0  0  0  0  0  0  0  0  0
    6.4124    1.0471    1.5086 H   0  0  0  0  0  0  0  0  0  0  0  0
    1.7799    0.0192   -2.1539 H   0  0  0  0  0  0  0  0  0  0  0  0
    6.1265   -0.8614   -1.9607 H   0  0  0  0  0  0  0  0  0  0  0  0
    4.7412   -1.9063   -4.8427 H   0  0  0  0  0  0  0  0  0  0  0  0
    6.1497   -1.7128   -5.9303 H   0  0  0  0  0  0  0  0  0  0  0  0
    4.5236    2.6104   -5.0160 H   0  0  0  0  0  0  0  0  0  0  0  0
    4.6884    2.6801   -6.7815 H   0  0  0  0  0  0  0  0  0  0  0  0
    5.9800    3.2847   -5.7478 H   0  0  0  0  0  0  0  0  0  0  0  0
    7.7829    0.9603   -4.7104 H   0  0  0  0  0  0  0  0  0  0  0  0
    6.4568    1.6115   -3.7588 H   0  0  0  0  0  0  0  0  0  0  0  0
    3.8956    0.6829   -7.6357 H   0  0  0  0  0  0  0  0  0  0  0  0
    5.0146   -0.6880   -7.8624 H   0  0  0  0  0  0  0  0  0  0  0  0
    1.8338    0.2630   -6.0293 H   0  0  0  0  0  0  0  0  0  0  0  0
   -0.0545   -1.2977   -5.6870 H   0  0  0  0  0  0  0  0  0  0  0  0
    0.1165   -3.6527   -6.4681 H   0  0  0  0  0  0  0  0  0  0  0  0
    2.1843   -4.4414   -7.5984 H   0  0  0  0  0  0  0  0  0  0  0  0
    4.0827   -2.8899   -7.9397 H   0  0  0  0  0  0  0  0  0  0  0  0
  2  1  1  0  0  0  0
  2  3  2  0  0  0  0
  3  4  1  0  0  0  0
  4 31  1  0  0  0  0
  4  5  1  0  0  0  0
  5 32  1  0  0  0  0
  5 34  1  0  0  0  0
  5 33  1  0  0  0  0
  6  3  1  0  0  0  0
  6 35  1  0  0  0  0
  7  6  2  0  0  0  0
  8  7  1  0  0  0  0
  8  9  1  0  0  0  0
  9 38  1  0  0  0  0
  9 37  1  0  0  0  0
 10 11  2  0  0  0  0
 10  7  1  0  0  0  0
 11  2  1  0  0  0  0
 12 10  1  0  0  0  0
 13 12  2  0  0  0  0
 14 12  1  0  0  0  0
 14 40  1  0  0  0  0
 15 16  1  1  0  0  0
 15 14  1  0  0  0  0
 17 41  1  0  0  0  0
 17 15  1  0  0  0  0
 18 17  1  0  0  0  0
 18 19  1  0  0  0  0
 20 21  1  6  0  0  0
 20 18  1  0  0  0  0
 20 23  1  0  0  0  0
 22 20  1  0  0  0  0
 22 45  1  0  0  0  0
 22 43  1  0  0  0  0
 23 15  1  0  0  0  0
 23 47  1  0  0  0  0
 24 25  1  0  0  0  0
 24 18  1  0  0  0  0
 25 26  2  0  0  0  0
 26 27  1  0  0  0  0
 26 50  1  0  0  0  0
 27 51  1  0  0  0  0
 28 52  1  0  0  0  0
 28 27  2  0  0  0  0
 29 28  1  0  0  0  0
 30 29  2  0  0  0  0
 30 25  1  0  0  0  0
 36  9  1  0  0  0  0
 39 11  1  0  0  0  0
 42 17  1  0  0  0  0
 44 22  1  0  0  0  0
 46 23  1  0  0  0  0
 48 24  1  0  0  0  0
 49 24  1  0  0  0  0
 53 29  1  0  0  0  0
 54 30  1  0  0  0  0
M  END
$$$$
