54
rmsd250.gzmat
Cl         0.00000        0.00000        0.00000
C          1.70430        0.00000        0.00000
C          2.41100        0.00000        1.24110
N          1.73770        0.03810        2.41690
C          2.42110        0.04370        3.70880
C          3.82520       -0.02950        1.17920
C          4.46200       -0.03730       -0.05310
O          5.80700       -0.04290       -0.20170
C          6.62440       -0.11800        0.96170
C          3.75620       -0.01680       -1.27580
C          2.34800        0.00550       -1.21060
C          4.34170        0.03990       -2.60840
O          3.67330        0.46580       -3.55750
N          5.62630       -0.43150       -2.81210
C          6.36800       -0.30520       -4.06290
H          7.33990       -0.85360       -3.93160
C          5.59540       -0.89810       -5.26870
N          4.83350        0.28540       -5.81720
H          4.02100        0.47040       -5.08730
C          5.80260        1.46920       -5.72840
H          6.45380        1.47040       -6.63730
C          5.01730        2.76410       -5.62240
C          6.63190        1.17370       -4.46160
C          4.28110        0.04620       -7.19310
C          3.32110       -1.10710       -7.14800
C          2.16100       -1.01630       -6.37580
C          1.28490       -2.09700       -6.31610
C          1.55620       -3.25740       -7.04050
C          2.70390       -3.33730       -7.82770
C          3.59060       -2.26370       -7.88030
H          0.72530        0.04930        2.44070
H          2.94740       -0.91280        3.89040
H          1.68510        0.18760        4.52250
H          3.15610        0.86820        3.77610
H          4.39890       -0.04000        2.09850
H          7.63670       -0.08030        0.53490
H          6.45710       -1.06520        1.48650
H          6.45260        0.74650        1.61280
H          1.77890        0.02920       -2.15330
H          6.16560       -0.73780       -2.00420
H          4.88840       -1.70380       -4.96830
H          6.28040       -1.32520       -6.02670
H          4.30160        2.75610       -4.78100
H          4.45040        2.99770       -6.53290
H          5.68810        3.62050       -5.44500
H          7.70670        1.35140       -4.64000
H          6.35920        1.85450       -3.63010
H          3.75870        0.97460       -7.53610
H          5.11010       -0.12960       -7.91650
H          1.93060       -0.10700       -5.81890
H          0.38180       -2.03210       -5.70650
H          0.86550       -4.10180       -6.99640
H          2.90710       -4.23970       -8.40670
H          4.48250       -2.33320       -8.50150
