54
rmsd101.gzmat
Cl         0.00000        0.00000        0.00000
C          1.70440        0.00000        0.00000
C          2.40950        0.00000        1.24180
N          1.73540        0.01100        2.41750
C          2.41810        0.01080        3.70980
C          3.82320       -0.01600        1.17980
C          4.46260       -0.01910       -0.05190
O          5.80700       -0.06900       -0.19050
C          6.61940       -0.07280        0.97910
C          3.75960        0.00960       -1.27650
C          2.35000       -0.00060       -1.20910
C          4.33290        0.02170       -2.61510
O          3.61640       -0.20010       -3.59940
N          5.67370        0.30920       -2.79290
C          6.33130        0.40030       -4.09160
H          7.42410        0.57890       -3.90460
C          6.14690       -0.89210       -4.93350
N          4.92170       -0.59420       -5.76500
H          4.07150       -0.62070       -5.05670
C          5.09000        0.86240       -6.20840
H          5.77060        0.89250       -7.09480
C          3.73500        1.45900       -6.54250
C          5.74730        1.53210       -4.98350
C          4.71790       -1.57110       -6.88770
C          4.34030       -2.90060       -6.30220
C          3.11670       -3.03990       -5.64320
C          2.77190       -4.26380       -5.07580
C          3.64180       -5.34900       -5.17610
C          4.85550       -5.21160       -5.84820
C          5.20880       -3.98630       -6.41010
H          0.72310        0.01740        2.44110
H          3.05080       -0.88860        3.83300
H          1.67370        0.01300        4.52870
H          3.05410        0.90850        3.83080
H          4.39590       -0.03280        2.09950
H          7.63250       -0.13100        0.55670
H          6.40880       -0.95770        1.59110
H          6.48450        0.85530        1.54510
H          1.78060       -0.00770       -2.15270
H          6.25560        0.48840       -1.97860
H          5.97550       -1.79300       -4.30440
H          7.02890       -1.09720       -5.57050
H          3.01730        1.36690       -5.70830
H          3.27110        1.00480       -7.42750
H          3.82060        2.53690       -6.75590
H          6.53240        2.24370       -5.29080
H          5.01290        2.13470       -4.40990
H          3.90330       -1.19230       -7.55450
H          5.63190       -1.63290       -7.52100
H          2.42630       -2.19950       -5.56640
H          1.81900       -4.37160       -4.55470
H          3.36880       -6.30880       -4.73310
H          5.52940       -6.06490       -5.93750
H          6.15670       -3.88970       -6.93710
