rmsd70.gzmat
 OpenBabel08211713363D

 54 56  0  0  1  0  0  0  0  0999 V2000
    0.0000    0.0000    0.0000 Cl  0  0  0  0  0  0  0  0  0  0  0  0
    1.7040    0.0000    0.0000 C   0  0  0  0  0  0  0  0  0  0  0  0
    2.4101    0.0000    1.2414 C   0  0  0  0  0  0  0  0  0  0  0  0
    1.7364   -0.0257    2.4171 N   0  0  0  0  0  0  0  0  0  0  0  0
    2.4186   -0.0342    3.7095 C   0  0  0  0  0  0  0  0  0  0  0  0
    3.8238    0.0286    1.1789 C   0  0  0  0  0  0  0  0  0  0  0  0
    4.4617    0.0405   -0.0532 C   0  0  0  0  0  0  0  0  0  0  0  0
    5.8055    0.1098   -0.1961 O   0  0  0  0  0  0  0  0  0  0  0  0
    6.6201    0.1511    0.9713 C   0  0  0  0  0  0  0  0  0  0  0  0
    3.7576    0.0041   -1.2769 C   0  0  0  0  0  0  0  0  0  0  0  0
    2.3486    0.0030   -1.2098 C   0  0  0  0  0  0  0  0  0  0  0  0
    4.3348    0.0094   -2.6140 C   0  0  0  0  0  0  0  0  0  0  0  0
    3.6337    0.2912   -3.5914 O   0  0  0  0  0  0  0  0  0  0  0  0
    5.6573   -0.3606   -2.7931 N   0  0  0  0  0  0  0  0  0  0  0  0
    6.3788   -0.2610   -4.0576 C   0  0  1  0  0  0  0  0  0  0  0  0
    7.3870   -0.7331   -3.9035 H   0  0  0  0  0  0  0  0  0  0  0  0
    5.6408   -0.9773   -5.2184 C   0  0  0  0  0  0  0  0  0  0  0  0
    4.8060    0.1132   -5.8486 N   0  0  0  0  0  0  0  0  0  0  0  0
    3.9701    0.2942   -5.1535 H   0  0  0  0  0  0  0  0  0  0  0  0
    5.6855    1.3718   -5.8194 C   0  0  1  0  0  0  0  0  0  0  0  0
    6.3273    1.3807   -6.7345 H   0  0  0  0  0  0  0  0  0  0  0  0
    4.8160    2.6145   -5.7596 C   0  0  0  0  0  0  0  0  0  0  0  0
    6.5407    1.2038   -4.5467 C   0  0  0  0  0  0  0  0  0  0  0  0
    4.3028   -0.2688   -7.2149 C   0  0  0  0  0  0  0  0  0  0  0  0
    3.1194    0.5803   -7.5760 C   0  0  0  0  0  0  0  0  0  0  0  0
    3.1854    1.4386   -8.6740 C   0  0  0  0  0  0  0  0  0  0  0  0
    2.0884    2.2356   -8.9937 C   0  0  0  0  0  0  0  0  0  0  0  0
    0.9312    2.1766   -8.2186 C   0  0  0  0  0  0  0  0  0  0  0  0
    0.8634    1.3098   -7.1287 C   0  0  0  0  0  0  0  0  0  0  0  0
    1.9531    0.5028   -6.8111 C   0  0  0  0  0  0  0  0  0  0  0  0
    0.7239   -0.0307    2.4406 H   0  0  0  0  0  0  0  0  0  0  0  0
    3.1048   -0.8975    3.7989 H   0  0  0  0  0  0  0  0  0  0  0  0
    1.6752   -0.1123    4.5254 H   0  0  0  0  0  0  0  0  0  0  0  0
    2.9982    0.8956    3.8671 H   0  0  0  0  0  0  0  0  0  0  0  0
    4.3974    0.0474    2.0981 H   0  0  0  0  0  0  0  0  0  0  0  0
    7.6298    0.2341    0.5455 H   0  0  0  0  0  0  0  0  0  0  0  0
    6.5146   -0.7749    1.5469 H   0  0  0  0  0  0  0  0  0  0  0  0
    6.3876    1.0362    1.5747 H   0  0  0  0  0  0  0  0  0  0  0  0
    1.7786    0.0063   -2.1528 H   0  0  0  0  0  0  0  0  0  0  0  0
    6.2261   -0.5536   -1.9717 H   0  0  0  0  0  0  0  0  0  0  0  0
    4.9882   -1.8008   -4.8537 H   0  0  0  0  0  0  0  0  0  0  0  0
    6.3570   -1.4061   -5.9467 H   0  0  0  0  0  0  0  0  0  0  0  0
    4.1234    2.6068   -4.9003 H   0  0  0  0  0  0  0  0  0  0  0  0
    4.1993    2.7470   -6.6614 H   0  0  0  0  0  0  0  0  0  0  0  0
    5.4293    3.5235   -5.6610 H   0  0  0  0  0  0  0  0  0  0  0  0
    7.5996    1.4434   -4.7467 H   0  0  0  0  0  0  0  0  0  0  0  0
    6.2287    1.9145   -3.7542 H   0  0  0  0  0  0  0  0  0  0  0  0
    5.1232   -0.1832   -7.9639 H   0  0  0  0  0  0  0  0  0  0  0  0
    4.0036   -1.3474   -7.2041 H   0  0  0  0  0  0  0  0  0  0  0  0
    4.0835    1.4859   -9.2882 H   0  0  0  0  0  0  0  0  0  0  0  0
    2.1350    2.9063   -9.8531 H   0  0  0  0  0  0  0  0  0  0  0  0
    0.0749    2.8064   -8.4686 H   0  0  0  0  0  0  0  0  0  0  0  0
   -0.0446    1.2594   -6.5250 H   0  0  0  0  0  0  0  0  0  0  0  0
    1.8849   -0.1833   -5.9662 H   0  0  0  0  0  0  0  0  0  0  0  0
  2  1  1  0  0  0  0
  2  3  2  0  0  0  0
  3  4  1  0  0  0  0
  4 31  1  0  0  0  0
  4  5  1  0  0  0  0
  5 32  1  0  0  0  0
  5 34  1  0  0  0  0
  5 33  1  0  0  0  0
  6  3  1  0  0  0  0
  6 35  1  0  0  0  0
  7  6  2  0  0  0  0
  8  7  1  0  0  0  0
  8  9  1  0  0  0  0
  9 37  1  0  0  0  0
  9 38  1  0  0  0  0
 10 11  2  0  0  0  0
 10  7  1  0  0  0  0
 11  2  1  0  0  0  0
 12 10  1  0  0  0  0
 13 12  2  0  0  0  0
 14 12  1  0  0  0  0
 14 40  1  0  0  0  0
 15 16  1  1  0  0  0
 15 14  1  0  0  0  0
 17 41  1  0  0  0  0
 17 15  1  0  0  0  0
 18 20  1  0  0  0  0
 18 17  1  0  0  0  0
 18 19  1  0  0  0  0
 20 21  1  6  0  0  0
 20 22  1  0  0  0  0
 20 23  1  0  0  0  0
 22 45  1  0  0  0  0
 22 43  1  0  0  0  0
 23 15  1  0  0  0  0
 23 47  1  0  0  0  0
 24 49  1  0  0  0  0
 24 18  1  0  0  0  0
 25 24  1  0  0  0  0
 25 30  2  0  0  0  0
 26 25  1  0  0  0  0
 27 26  2  0  0  0  0
 27 28  1  0  0  0  0
 28 29  2  0  0  0  0
 29 30  1  0  0  0  0
 29 53  1  0  0  0  0
 30 54  1  0  0  0  0
 36  9  1  0  0  0  0
 39 11  1  0  0  0  0
 42 17  1  0  0  0  0
 44 22  1  0  0  0  0
 46 23  1  0  0  0  0
 48 24  1  0  0  0  0
 50 26  1  0  0  0  0
 51 27  1  0  0  0  0
 52 28  1  0  0  0  0
M  END
$$$$
