54
rmsd71.gzmat
Cl         0.00000        0.00000        0.00000
C          1.70410        0.00000        0.00000
C          2.41090        0.00000        1.24120
N          1.73750       -0.03360        2.41700
C          2.42000       -0.00520        3.70920
C          3.82500        0.03210        1.17940
C          4.46220        0.03530       -0.05290
O          5.80630        0.08250       -0.20140
C          6.62160        0.16910        0.96320
C          3.75670        0.00360       -1.27560
C          2.34820        0.00700       -1.21040
C          4.34150        0.01410       -2.60940
O          3.66990        0.38030       -3.57980
N          5.63040       -0.45770       -2.79090
C          6.36230       -0.40410       -4.05230
H          7.30890       -0.99350       -3.91360
C          5.54630       -0.99650       -5.23140
N          4.85510        0.20750       -5.82970
H          4.06090        0.48310       -5.11250
C          5.90160        1.32860       -5.79240
H          6.55870        1.23390       -6.69220
C          5.22250        2.68480       -5.76290
C          6.69280        1.04710       -4.49810
C          4.27870       -0.07510       -7.18950
C          3.22540        0.94130       -7.52370
C          3.35410        1.72200       -8.67280
C          2.37220        2.66060       -8.98310
C          1.26970        2.82280       -8.14550
C          1.13990        2.03580       -7.00190
C          2.11230        1.08800       -6.69330
H          0.72510       -0.04880        2.44050
H          3.10720       -0.86510        3.82290
H          1.67740       -0.05880        4.52770
H          2.99990        0.92860        3.83900
H          4.39870        0.05510        2.09840
H          7.63130        0.23150        0.53310
H          6.51450       -0.73210        1.57700
H          6.38960        1.07850        1.52960
H          1.77940        0.01690       -2.15360
H          6.17810       -0.70760       -1.97000
H          4.79570       -1.74180       -4.88740
H          6.20570       -1.49090       -5.97140
H          4.49910        2.78110       -4.93640
H          4.67350        2.90580       -6.69110
H          5.95820        3.49380       -5.63340
H          7.77680        1.17920       -4.65950
H          6.42950        1.76930       -3.69840
H          5.09010       -0.10210       -7.95250
H          3.82110       -1.09750       -7.18430
H          4.21090        1.59910       -9.33420
H          2.46450        3.26560       -9.88640
H          0.50330        3.56170       -8.38840
H          0.27300        2.15620       -6.34950
H          1.99260        0.46810       -5.80310
