rmsd154.gzmat
 OpenBabel08211713363D

 54 56  0  0  1  0  0  0  0  0999 V2000
    0.0000    0.0000    0.0000 Cl  0  0  0  0  0  0  0  0  0  0  0  0
    1.7044    0.0000    0.0000 C   0  0  0  0  0  0  0  0  0  0  0  0
    2.4101    0.0000    1.2417 C   0  0  0  0  0  0  0  0  0  0  0  0
    1.7371    0.0079    2.4183 N   0  0  0  0  0  0  0  0  0  0  0  0
    2.4223    0.0117    3.7092 C   0  0  0  0  0  0  0  0  0  0  0  0
    3.8238   -0.0156    1.1798 C   0  0  0  0  0  0  0  0  0  0  0  0
    4.4624   -0.0225   -0.0522 C   0  0  0  0  0  0  0  0  0  0  0  0
    5.8068   -0.0663   -0.1937 O   0  0  0  0  0  0  0  0  0  0  0  0
    6.6181   -0.0984    0.9761 C   0  0  0  0  0  0  0  0  0  0  0  0
    3.7586    0.0002   -1.2761 C   0  0  0  0  0  0  0  0  0  0  0  0
    2.3498   -0.0066   -1.2097 C   0  0  0  0  0  0  0  0  0  0  0  0
    4.3377    0.0032   -2.6127 C   0  0  0  0  0  0  0  0  0  0  0  0
    3.6433   -0.2853   -3.5945 O   0  0  0  0  0  0  0  0  0  0  0  0
    5.6594    0.3704   -2.7894 N   0  0  0  0  0  0  0  0  0  0  0  0
    6.3148    0.4876   -4.0868 C   0  0  1  0  0  0  0  0  0  0  0  0
    7.3893    0.7540   -3.8992 H   0  0  0  0  0  0  0  0  0  0  0  0
    6.2368   -0.8285   -4.9071 C   0  0  0  0  0  0  0  0  0  0  0  0
    4.9915   -0.6466   -5.7426 N   0  0  0  0  0  0  0  0  0  0  0  0
    4.1449   -0.7340   -5.0383 H   0  0  0  0  0  0  0  0  0  0  0  0
    5.0377    0.8127   -6.2086 C   0  0  1  0  0  0  0  0  0  0  0  0
    5.7065    0.8833   -7.1016 H   0  0  0  0  0  0  0  0  0  0  0  0
    3.6368    1.2945   -6.5383 C   0  0  0  0  0  0  0  0  0  0  0  0
    5.6481    1.5540   -5.0010 C   0  0  0  0  0  0  0  0  0  0  0  0
    4.8782   -1.6532   -6.8521 C   0  0  0  0  0  0  0  0  0  0  0  0
    4.6609   -3.0099   -6.2479 C   0  0  0  0  0  0  0  0  0  0  0  0
    3.4709   -3.2781   -5.5682 C   0  0  0  0  0  0  0  0  0  0  0  0
    3.2745   -4.5263   -4.9834 C   0  0  0  0  0  0  0  0  0  0  0  0
    4.2583   -5.5087   -5.0901 C   0  0  0  0  0  0  0  0  0  0  0  0
    5.4394   -5.2429   -5.7809 C   0  0  0  0  0  0  0  0  0  0  0  0
    5.6447   -3.9920   -6.3595 C   0  0  0  0  0  0  0  0  0  0  0  0
    0.7250    0.0243    2.4430 H   0  0  0  0  0  0  0  0  0  0  0  0
    3.0868   -0.8664    3.8175 H   0  0  0  0  0  0  0  0  0  0  0  0
    1.6808   -0.0276    4.5292 H   0  0  0  0  0  0  0  0  0  0  0  0
    3.0267    0.9291    3.8427 H   0  0  0  0  0  0  0  0  0  0  0  0
    4.3976   -0.0247    2.0989 H   0  0  0  0  0  0  0  0  0  0  0  0
    7.6315   -0.1401    0.5526 H   0  0  0  0  0  0  0  0  0  0  0  0
    6.4108   -1.0007    1.5624 H   0  0  0  0  0  0  0  0  0  0  0  0
    6.4799    0.8131    1.5680 H   0  0  0  0  0  0  0  0  0  0  0  0
    1.7805   -0.0155   -2.1531 H   0  0  0  0  0  0  0  0  0  0  0  0
    6.2272    0.5885   -1.9747 H   0  0  0  0  0  0  0  0  0  0  0  0
    6.1429   -1.7313   -4.2648 H   0  0  0  0  0  0  0  0  0  0  0  0
    7.1326   -0.9684   -5.5430 H   0  0  0  0  0  0  0  0  0  0  0  0
    2.9398    1.1735   -5.6898 H   0  0  0  0  0  0  0  0  0  0  0  0
    3.1955    0.7810   -7.4022 H   0  0  0  0  0  0  0  0  0  0  0  0
    3.6375    2.3693   -6.7830 H   0  0  0  0  0  0  0  0  0  0  0  0
    6.3783    2.3141   -5.3269 H   0  0  0  0  0  0  0  0  0  0  0  0
    4.8738    2.1150   -4.4376 H   0  0  0  0  0  0  0  0  0  0  0  0
    4.0164   -1.3738   -7.5082 H   0  0  0  0  0  0  0  0  0  0  0  0
    5.7835   -1.6211   -7.5001 H   0  0  0  0  0  0  0  0  0  0  0  0
    2.6917   -2.5197   -5.4886 H   0  0  0  0  0  0  0  0  0  0  0  0
    2.3480   -4.7343   -4.4450 H   0  0  0  0  0  0  0  0  0  0  0  0
    4.1007   -6.4893   -4.6366 H   0  0  0  0  0  0  0  0  0  0  0  0
    6.2034   -6.0162   -5.8736 H   0  0  0  0  0  0  0  0  0  0  0  0
    6.5673   -3.7946   -6.9029 H   0  0  0  0  0  0  0  0  0  0  0  0
  2  1  1  0  0  0  0
  2  3  2  0  0  0  0
  3  4  1  0  0  0  0
  4 31  1  0  0  0  0
  4  5  1  0  0  0  0
  5 32  1  0  0  0  0
  5 34  1  0  0  0  0
  5 33  1  0  0  0  0
  6  3  1  0  0  0  0
  6 35  1  0  0  0  0
  7  6  2  0  0  0  0
  8  7  1  0  0  0  0
  8  9  1  0  0  0  0
  9 37  1  0  0  0  0
  9 38  1  0  0  0  0
 10 11  2  0  0  0  0
 10  7  1  0  0  0  0
 11  2  1  0  0  0  0
 12 10  1  0  0  0  0
 13 12  2  0  0  0  0
 14 12  1  0  0  0  0
 14 40  1  0  0  0  0
 15 16  1  1  0  0  0
 15 14  1  0  0  0  0
 17 41  1  0  0  0  0
 17 15  1  0  0  0  0
 18 19  1  0  0  0  0
 18 17  1  0  0  0  0
 20 21  1  6  0  0  0
 20 18  1  0  0  0  0
 20 23  1  0  0  0  0
 22 20  1  0  0  0  0
 22 43  1  0  0  0  0
 23 47  1  0  0  0  0
 23 15  1  0  0  0  0
 24 25  1  0  0  0  0
 24 18  1  0  0  0  0
 25 26  1  0  0  0  0
 26 50  1  0  0  0  0
 26 27  2  0  0  0  0
 27 51  1  0  0  0  0
 28 27  1  0  0  0  0
 28 52  1  0  0  0  0
 29 28  2  0  0  0  0
 30 25  2  0  0  0  0
 30 29  1  0  0  0  0
 36  9  1  0  0  0  0
 39 11  1  0  0  0  0
 42 17  1  0  0  0  0
 44 22  1  0  0  0  0
 45 22  1  0  0  0  0
 46 23  1  0  0  0  0
 48 24  1  0  0  0  0
 49 24  1  0  0  0  0
 53 29  1  0  0  0  0
 54 30  1  0  0  0  0
M  END
$$$$
