50
rmsd172.gzmat
O          0.00000        0.00000        0.00000
C          1.36190        0.00000        0.00000
O          1.96310        0.00000        1.04130
C          1.86890        0.00720       -1.41750
H          1.00220       -0.15230       -2.11490
C          2.50420        1.37180       -1.72740
C          3.80170        1.58430       -0.94650
C          4.82810        0.47110       -1.28350
C          4.19280       -0.87960       -0.87130
C          2.88130       -1.13030       -1.62010
C          6.01700        0.68370       -0.45870
N          6.95920        0.85700        0.18870
C          5.28850        0.52000       -2.72930
C          5.53850       -0.64200       -3.45630
C          5.99210       -0.57620       -4.77100
C          6.21650        0.66260       -5.37540
O          6.62990        0.55830       -6.66320
C          7.15960        1.72080       -7.28790
C          5.97800        1.84210       -4.63950
C          5.52190        1.76290       -3.32840
O          6.17250        3.01220       -5.30370
C          6.53420        4.16480       -4.52960
C          7.87930        3.96470       -3.81630
C          8.93080        4.67310       -4.68300
C          8.16790        5.76230       -5.45700
C          6.72740        5.24850       -5.60740
H         -0.40240       -0.00320        0.90120
H          1.78800        2.18760       -1.51140
H          2.71280        1.43300       -2.81740
H          4.21790        2.58610       -1.15690
H          3.59820        1.57310        0.14640
H          4.90020       -1.71290       -1.03630
H          4.00290       -0.87120        0.22570
H          3.08060       -1.23710       -2.70790
H          2.44400       -2.09540       -1.29790
H          5.39760       -1.62400       -3.00560
H          6.18880       -1.48580       -5.33780
H          7.58620        1.31000       -8.21200
H          7.93550        2.19160       -6.67630
H          6.35280        2.42900       -7.50770
H          5.35180        2.67820       -2.76530
H          5.70160        4.39400       -3.83820
H          8.11500        2.89370       -3.68710
H          7.85050        4.39310       -2.79970
H          9.74510        5.09640       -4.07530
H          9.40240        3.96020       -5.38170
H          8.18510        6.71660       -4.90320
H          8.63200        5.96530       -6.43420
H          5.98920        6.05740       -5.50110
H          6.56190        4.81680       -6.61340
