rmsd185.gzmat
 OpenBabel08211713423D

 50 52  0  0  1  0  0  0  0  0999 V2000
    0.0000    0.0000    0.0000 O   0  0  0  0  0  0  0  0  0  0  0  0
    1.3623    0.0000    0.0000 C   0  0  0  0  0  0  0  0  0  0  0  0
    1.9632    0.0000    1.0409 O   0  0  0  0  0  0  0  0  0  0  0  0
    1.8665    0.0007   -1.4184 C   0  0  1  0  0  0  0  0  0  0  0  0
    1.2031   -0.6687   -2.0296 H   0  0  0  0  0  0  0  0  0  0  0  0
    1.7723    1.4279   -1.9830 C   0  0  0  0  0  0  0  0  0  0  0  0
    2.7922    2.3647   -1.3322 C   0  0  0  0  0  0  0  0  0  0  0  0
    4.2340    1.8319   -1.5382 C   0  0  2  0  0  0  0  0  0  0  0  0
    4.3060    0.4437   -0.8534 C   0  0  0  0  0  0  0  0  0  0  0  0
    3.3068   -0.5286   -1.4848 C   0  0  0  0  0  0  0  0  0  0  0  0
    5.1541    2.7331   -0.8466 C   0  0  0  0  0  0  0  0  0  0  0  0
    5.8807    3.4465   -0.2997 N   0  0  0  0  0  0  0  0  0  0  0  0
    4.6576    1.7995   -2.9960 C   0  0  0  0  0  0  0  0  0  0  0  0
    4.1037    2.6794   -3.9219 C   0  0  0  0  0  0  0  0  0  0  0  0
    4.4995    2.6500   -5.2574 C   0  0  0  0  0  0  0  0  0  0  0  0
    5.4702    1.7424   -5.6819 C   0  0  0  0  0  0  0  0  0  0  0  0
    5.7047    1.8114   -7.0170 O   0  0  0  0  0  0  0  0  0  0  0  0
    6.7901    1.0642   -7.5484 C   0  0  0  0  0  0  0  0  0  0  0  0
    6.0621    0.8725   -4.7390 C   0  0  0  0  0  0  0  0  0  0  0  0
    5.6519    0.9056   -3.4118 C   0  0  0  0  0  0  0  0  0  0  0  0
    7.0183    0.0472   -5.2371 O   0  0  0  0  0  0  0  0  0  0  0  0
    7.7240   -0.8123   -4.3350 C   0  0  0  0  0  0  0  0  0  0  0  0
    6.8723   -2.0494   -4.0050 C   0  0  0  0  0  0  0  0  0  0  0  0
    7.4551   -3.2085   -4.8290 C   0  0  0  0  0  0  0  0  0  0  0  0
    8.9076   -2.8121   -5.1457 C   0  0  0  0  0  0  0  0  0  0  0  0
    8.9281   -1.2771   -5.1763 C   0  0  0  0  0  0  0  0  0  0  0  0
   -0.3998    0.0175    0.9024 H   0  0  0  0  0  0  0  0  0  0  0  0
    0.7467    1.8250   -1.8478 H   0  0  0  0  0  0  0  0  0  0  0  0
    1.9398    1.3919   -3.0806 H   0  0  0  0  0  0  0  0  0  0  0  0
    2.6891    3.3899   -1.7343 H   0  0  0  0  0  0  0  0  0  0  0  0
    2.5886    2.4554   -0.2450 H   0  0  0  0  0  0  0  0  0  0  0  0
    5.3299    0.0309   -0.8977 H   0  0  0  0  0  0  0  0  0  0  0  0
    4.0880    0.5551    0.2323 H   0  0  0  0  0  0  0  0  0  0  0  0
    3.5755   -0.7058   -2.5476 H   0  0  0  0  0  0  0  0  0  0  0  0
    3.3767   -1.5127   -0.9813 H   0  0  0  0  0  0  0  0  0  0  0  0
    3.3577    3.4131   -3.6185 H   0  0  0  0  0  0  0  0  0  0  0  0
    4.0592    3.3337   -5.9828 H   0  0  0  0  0  0  0  0  0  0  0  0
    6.7936    1.3846   -8.5988 H   0  0  0  0  0  0  0  0  0  0  0  0
    6.5920   -0.0107   -7.4710 H   0  0  0  0  0  0  0  0  0  0  0  0
    7.7317    1.3299   -7.0575 H   0  0  0  0  0  0  0  0  0  0  0  0
    6.1107    0.2365   -2.6872 H   0  0  0  0  0  0  0  0  0  0  0  0
    8.0297   -0.2364   -3.4407 H   0  0  0  0  0  0  0  0  0  0  0  0
    5.8115   -1.8745   -4.2554 H   0  0  0  0  0  0  0  0  0  0  0  0
    6.9078   -2.2751   -2.9265 H   0  0  0  0  0  0  0  0  0  0  0  0
    7.4029   -4.1648   -4.2862 H   0  0  0  0  0  0  0  0  0  0  0  0
    6.8809   -3.3490   -5.7619 H   0  0  0  0  0  0  0  0  0  0  0  0
    9.5929   -3.1973   -4.3709 H   0  0  0  0  0  0  0  0  0  0  0  0
    9.2475   -3.2438   -6.0998 H   0  0  0  0  0  0  0  0  0  0  0  0
    9.8737   -0.8684   -4.7891 H   0  0  0  0  0  0  0  0  0  0  0  0
    8.8331   -0.9006   -6.2133 H   0  0  0  0  0  0  0  0  0  0  0  0
  1  2  1  0  0  0  0
  1 27  1  0  0  0  0
  2  3  2  0  0  0  0
  4  5  1  6  0  0  0
  4  2  1  0  0  0  0
  6 28  1  0  0  0  0
  6  4  1  0  0  0  0
  6  7  1  0  0  0  0
  7 31  1  0  0  0  0
  8  7  1  0  0  0  0
  8  9  1  0  0  0  0
  8 11  1  1  0  0  0
  9 33  1  0  0  0  0
 10  4  1  0  0  0  0
 10 35  1  0  0  0  0
 10  9  1  0  0  0  0
 11 12  3  0  0  0  0
 13  8  1  0  0  0  0
 14 36  1  0  0  0  0
 14 13  2  0  0  0  0
 15 14  1  0  0  0  0
 16 15  2  0  0  0  0
 16 19  1  0  0  0  0
 17 16  1  0  0  0  0
 18 39  1  0  0  0  0
 18 40  1  0  0  0  0
 18 17  1  0  0  0  0
 19 20  2  0  0  0  0
 20 13  1  0  0  0  0
 20 41  1  0  0  0  0
 21 19  1  0  0  0  0
 21 22  1  0  0  0  0
 22 23  1  0  0  0  0
 22 42  1  0  0  0  0
 23 44  1  0  0  0  0
 24 45  1  0  0  0  0
 24 23  1  0  0  0  0
 25 24  1  0  0  0  0
 25 47  1  0  0  0  0
 26 25  1  0  0  0  0
 26 49  1  0  0  0  0
 26 22  1  0  0  0  0
 29  6  1  0  0  0  0
 30  7  1  0  0  0  0
 32  9  1  0  0  0  0
 34 10  1  0  0  0  0
 37 15  1  0  0  0  0
 38 18  1  0  0  0  0
 43 23  1  0  0  0  0
 46 24  1  0  0  0  0
 48 25  1  0  0  0  0
 50 26  1  0  0  0  0
M  END
$$$$
