50
rmsd23.gzmat
O          0.00000        0.00000        0.00000
C          1.36160        0.00000        0.00000
O          1.96260        0.00000        1.04140
C          1.86630        0.00470       -1.41830
H          0.98760        0.05640       -2.11700
C          2.75190        1.23860       -1.64780
C          4.08230        1.14510       -0.89640
C          4.86040       -0.14120       -1.26650
C          3.95430       -1.35100       -0.91810
C          2.64290       -1.28990       -1.70190
C          6.04980       -0.20500       -0.41630
N          6.99380       -0.26010        0.24820
C          5.35330       -0.18560       -2.70140
C          5.40130        0.95330       -3.50210
C          5.87230        0.88600       -4.81070
C          6.32950       -0.32730       -5.33140
O          6.72420       -0.23050       -6.62480
C          7.30850       -1.37280       -7.23680
C          6.32270       -1.47370       -4.51020
C          5.82940       -1.39810       -3.21270
O          6.77050       -2.62640       -5.07690
C          7.42490       -3.57400       -4.22060
C          7.90870       -4.64590       -5.21630
C          9.43450       -4.73710       -5.05470
C          9.86940       -3.42590       -4.37760
C          8.66360       -2.97400       -3.54010
H         -0.40270       -0.00390        0.90110
H          2.21460        2.15880       -1.34570
H          2.93630        1.34160       -2.73800
H          4.69940        2.04240       -1.08710
H          3.89120        1.14660        0.20050
H          4.47490       -2.30550       -1.11590
H          3.74590       -1.34830        0.17430
H          2.85650       -1.35140       -2.79070
H          2.01730       -2.17280       -1.46760
H          5.08290        1.92130       -3.11670
H          5.89960        1.77640       -5.43820
H          7.56240       -0.99120       -8.23430
H          6.58090       -2.18890       -7.30570
H          8.20710       -1.69260       -6.69900
H          5.82350       -2.29130       -2.59070
H          6.67650       -3.96020       -3.50370
H          7.63660       -4.35340       -6.24880
H          7.41740       -5.61320       -5.03500
H          9.70930       -5.60490       -4.43110
H          9.93790       -4.88160       -6.02250
H         10.77130       -3.56120       -3.76110
H         10.12210       -2.66330       -5.13490
H          8.74760       -3.33250       -2.49920
H          8.60390       -1.87360       -3.47560
