50
rmsd143.gzmat
O          0.00000        0.00000        0.00000
C          1.36210        0.00000        0.00000
O          1.96320        0.00000        1.04120
C          1.86680       -0.00120       -1.41820
H          0.98760       -0.00350       -2.11810
C          2.69360        1.26870       -1.67440
C          4.03060        1.24600       -0.93030
C          4.86010       -0.00100       -1.32860
C          4.02870       -1.24370       -0.91900
C          2.69550       -1.27070       -1.66890
C          6.09730        0.00310       -0.54990
N          7.07790        0.00680        0.06180
C          5.26220       -0.01210       -2.79320
C          5.44670        1.17740       -3.49370
C          5.83080        1.16710       -4.83590
C          6.03770       -0.04050       -5.48910
O          6.38350       -0.17960       -6.80000
C          6.68190        1.00940       -7.51780
C          5.88230       -1.25370       -4.78230
C          5.50030       -1.22730       -3.44030
O          6.01550       -2.50840       -5.26720
C          6.73840       -2.73180       -6.48470
C          8.20240       -2.28150       -6.37710
C          9.03780       -3.55800       -6.19590
C          8.19050       -4.69520       -6.79170
C          6.72800       -4.27010       -6.59230
H         -0.40290       -0.00410        0.90070
H          2.11620        2.16830       -1.38650
H          2.87330        1.36250       -2.76670
H          4.59670        2.17570       -1.11980
H          3.85220        1.22910        0.16790
H          4.59410       -2.17650       -1.09930
H          3.84880       -1.21640        0.17840
H          2.88150       -1.36750       -2.76060
H          2.11680       -2.17050       -1.38290
H          5.30200        2.13850       -3.00300
H          5.96390        2.11260       -5.35490
H          6.94980        0.61710       -8.50830
H          7.53020        1.53670       -7.07040
H          5.80120        1.65410       -7.59020
H          5.40490       -2.17950       -2.91690
H          6.18220       -2.24250       -7.30750
H          8.34520       -1.58140       -5.53550
H          8.50350       -1.73080       -7.28360
H         10.02070       -3.47880       -6.68280
H          9.23190       -3.74170       -5.12420
H          8.41600       -4.82800       -7.86310
H          8.40550       -5.66000       -6.30720
H          6.07910       -4.61410       -7.40990
H          6.31210       -4.70750       -5.66220
