50
rmsd99.gzmat
O          0.00000        0.00000        0.00000
C          1.36150        0.00000        0.00000
O          1.96250        0.00000        1.04130
C          1.86770        0.00350       -1.41750
H          0.99140       -0.07010       -2.11760
C          2.60720        1.32210       -1.69450
C          3.93410        1.40210       -0.93710
C          4.85420        0.21520       -1.32430
C          4.11440       -1.08040       -0.90600
C          2.78200       -1.21000       -1.64790
C          6.08380        0.31710       -0.54060
N          7.05720        0.40120        0.07720
C          5.25910        0.22940       -2.78770
C          5.50760       -0.95580       -3.47520
C          5.88790       -0.93460       -4.81530
C          6.02950        0.28070       -5.48620
O          6.36550        0.12460       -6.79190
C          6.73430        1.28010       -7.53250
C          5.79830        1.48630       -4.78790
C          5.42700        1.45140       -3.44900
O          5.94620        2.62020       -5.52080
C          5.89490        3.88130       -4.84450
C          7.15140        4.10130       -3.98660
C          7.93200        5.25760       -4.63350
C          6.95020        5.96470       -5.58430
C          5.93110        4.89610       -6.00230
H         -0.40220        0.00050        0.90130
H          1.96630        2.18570       -1.43170
H          2.79330        1.40420       -2.78710
H          4.43220        2.37000       -1.12520
H          3.74890        1.37620        0.15940
H          4.74550       -1.97070       -1.08130
H          3.93560       -1.05970        0.19210
H          2.96810       -1.31470       -2.73830
H          2.26810       -2.14090       -1.33980
H          5.41890       -1.91990       -2.97580
H          6.08240       -1.86280       -5.35220
H          7.06950        0.84400       -8.48300
H          7.54970        1.82360       -7.04470
H          5.86480        1.92810       -7.68730
H          5.27290        2.38140       -2.90660
H          4.95400        3.93840       -4.26500
H          7.76380        3.18150       -3.94570
H          6.88500        4.33630       -2.94330
H          8.33310        5.95090       -3.87800
H          8.80270        4.87280       -5.19280
H          6.44820        6.80400       -5.07280
H          7.46650        6.39970       -6.45390
H          4.93780        5.32340       -6.20340
H          6.24500        4.39280       -6.93730
