50

O          0.37680       -0.14550        0.48160
C          1.41340        0.70440        0.32770
O          1.89260        1.30450        1.25840
C          1.85720        0.81650       -1.12370
H          1.03880        1.36160       -1.62730
C          3.15480        1.62290       -1.24610
C          4.37720        0.83990       -0.75170
C          4.53120       -0.55160       -1.42400
C          3.19440       -1.32790       -1.22600
C          2.00460       -0.55950       -1.79670
C          5.59470       -1.29330       -0.72000
N          6.41930       -1.89690       -0.17290
C          4.94130       -0.49130       -2.91010
C          5.35250        0.68590       -3.53880
C          5.76440        0.66410       -4.87470
C          5.78270       -0.51710       -5.61370
O          6.15640       -0.45160       -6.91950
C          7.17440       -1.32530       -7.38540
C          5.36810       -1.71890       -4.98640
C          4.96250       -1.68520       -3.64950
O          5.36550       -2.83590       -5.75520
C          5.20820       -4.12940       -5.15970
C          5.19480       -5.13270       -6.31190
C          6.68450       -5.36290       -6.66910
C          7.49710       -4.83730       -5.45300
C          6.45450       -4.53020       -4.36240
H          0.14880       -0.13720        1.42720
H          3.07140        2.55200       -0.66430
H          3.28030        1.90460       -2.30130
H          5.29620        1.42700       -0.89050
H          4.27770        0.67850        0.33160
H          3.26270       -2.32510       -1.68150
H          3.05290       -1.49540       -0.14540
H          2.14900       -0.40830       -2.87820
H          1.08380       -1.14500       -1.66820
H          5.38210        1.63130       -3.00020
H          6.09140        1.57650       -5.37660
H          7.54000       -0.90050       -8.33080
H          6.79440       -2.34180       -7.56000
H          8.01420       -1.37450       -6.66940
H          4.67050       -2.61420       -3.16490
H          4.27590       -4.15030       -4.57070
H          4.59010       -4.76120       -7.15140
H          4.73040       -6.06420       -5.95270
H          6.88210       -6.42760       -6.86440
H          6.95910       -4.82110       -7.58630
H          8.25700       -5.55290       -5.10670
H          8.02900       -3.91290       -5.72340
H          6.21260       -5.43630       -3.78210
H          6.78020       -3.76270       -3.64610
