50

O          1.12840       -0.67090        0.71070
C          1.61160        0.45360        0.14220
O          1.72540        1.48390        0.75990
C          1.94990        0.25840       -1.32920
H          0.97000        0.16740       -1.83140
C          2.69710        1.47510       -1.88870
C          4.13950        1.54450       -1.37950
C          4.93980        0.24910       -1.69090
C          4.16750       -0.93820       -1.04730
C          2.73900       -1.03920       -1.58210
C          6.25940        0.35260       -1.04020
N          7.29340        0.43100       -0.52240
C          5.19130        0.03710       -3.19880
C          5.47240       -1.23150       -3.71470
C          5.75170       -1.41630       -5.07240
C          5.75850       -0.33240       -5.95640
O          5.99580       -0.42690       -7.28890
C          6.28530       -1.69010       -7.84290
C          5.49900        0.96180       -5.44630
C          5.22480        1.12020       -4.08850
O          5.45640        2.06740       -6.23320
C          6.59530        2.41560       -7.05270
C          6.41570        3.89000       -7.39700
C          6.83550        4.63920       -6.11300
C          7.80430        3.67770       -5.36510
C          7.89180        2.40960       -6.24150
H          0.91970       -0.44700        1.63400
H          2.17090        2.39720       -1.60390
H          2.68810        1.41430       -2.98740
H          4.65540        2.42210       -1.79210
H          4.13190        1.68290       -0.28840
H          4.70900       -1.88110       -1.20320
H          4.15120       -0.77820        0.04330
H          2.76490       -1.22570       -2.66680
H          2.22410       -1.89110       -1.11690
H          5.48830       -2.10520       -3.06330
H          5.95770       -2.42260       -5.43580
H          6.45020       -1.53040       -8.91640
H          5.44630       -2.39590       -7.70920
H          7.19570       -2.13210       -7.40010
H          5.04100        2.14130       -3.75790
H          6.62490        1.75240       -7.92820
H          5.38620        4.10670       -7.71770
H          7.08790        4.13500       -8.23550
H          7.30140        5.60930       -6.34210
H          5.95120        4.84780       -5.49340
H          8.79640        4.12410       -5.20170
H          7.40660        3.42470       -4.37080
H          8.73360        2.47570       -6.95000
H          8.03010        1.48550       -5.66120
