50

O          0.59830        0.82260        0.45580
C          1.27990       -0.27550        0.06830
O          1.43050       -1.22560        0.79680
C          1.78680       -0.16490       -1.36240
H          0.87880       -0.22590       -1.98860
C          2.47020        1.18660       -1.63620
C          3.79780        1.29490       -0.88950
C          4.78660        0.16400       -1.30400
C          4.09160       -1.19780       -1.03160
C          2.72270       -1.32770       -1.71060
C          5.97620        0.26140       -0.43680
N          6.90840        0.36190        0.24480
C          5.27960        0.33930       -2.75550
C          5.31380       -0.70850       -3.67820
C          5.82470       -0.49950       -4.96280
C          6.31400        0.74310       -5.36040
O          6.75680        0.87970       -6.63880
C          8.05080        1.42110       -6.86090
C          6.28430        1.81480       -4.43300
C          5.77580        1.59250       -3.15030
O          6.73300        3.01490       -4.87710
C          6.97620        4.08680       -3.95840
C          8.21000        3.80830       -3.09250
C          9.38650        3.99360       -4.06880
C          8.90930        5.05440       -5.09970
C          7.40690        5.28510       -4.80240
H          0.29640        0.65550        1.36540
H          1.80710        2.01260       -1.34400
H          2.64900        1.27700       -2.71930
H          4.25410        2.28000       -1.05650
H          3.62750        1.21850        0.19730
H          4.75310       -2.02320       -1.33090
H          3.95650       -1.29260        0.05570
H          2.83770       -1.35470       -2.80360
H          2.26440       -2.27860       -1.40330
H          4.96770       -1.70540       -3.41140
H          5.86050       -1.31100       -5.69190
H          8.33170        1.14440       -7.88690
H          8.78810        0.98840       -6.16140
H          8.06080        2.51540       -6.75790
H          5.77990        2.41080       -2.43390
H          6.05970        4.28650       -3.37810
H          8.19050        2.82080       -2.61000
H          8.24180        4.56320       -2.28920
H         10.30950        4.28950       -3.54920
H          9.59770        3.04020       -4.57570
H          9.47640        5.99340       -5.01430
H          9.05680        4.69300       -6.12830
H          7.26260        6.19810       -4.20380
H          6.78550        5.37640       -5.70450
