rmsd99.gzmat
 OpenBabel08211713423D

 50 52  0  0  1  0  0  0  0  0999 V2000
    0.0000    0.0000    0.0000 O   0  0  0  0  0  0  0  0  0  0  0  0
    1.3615    0.0000    0.0000 C   0  0  0  0  0  0  0  0  0  0  0  0
    1.9625    0.0000    1.0413 O   0  0  0  0  0  0  0  0  0  0  0  0
    1.8677    0.0035   -1.4175 C   0  0  1  0  0  0  0  0  0  0  0  0
    0.9914   -0.0701   -2.1176 H   0  0  0  0  0  0  0  0  0  0  0  0
    2.6072    1.3221   -1.6945 C   0  0  0  0  0  0  0  0  0  0  0  0
    3.9341    1.4021   -0.9371 C   0  0  0  0  0  0  0  0  0  0  0  0
    4.8542    0.2152   -1.3243 C   0  0  2  0  0  0  0  0  0  0  0  0
    4.1144   -1.0804   -0.9060 C   0  0  0  0  0  0  0  0  0  0  0  0
    2.7820   -1.2100   -1.6479 C   0  0  0  0  0  0  0  0  0  0  0  0
    6.0838    0.3171   -0.5406 C   0  0  0  0  0  0  0  0  0  0  0  0
    7.0572    0.4012    0.0772 N   0  0  0  0  0  0  0  0  0  0  0  0
    5.2591    0.2294   -2.7877 C   0  0  0  0  0  0  0  0  0  0  0  0
    5.5076   -0.9558   -3.4752 C   0  0  0  0  0  0  0  0  0  0  0  0
    5.8879   -0.9346   -4.8153 C   0  0  0  0  0  0  0  0  0  0  0  0
    6.0295    0.2807   -5.4862 C   0  0  0  0  0  0  0  0  0  0  0  0
    6.3655    0.1246   -6.7919 O   0  0  0  0  0  0  0  0  0  0  0  0
    6.7343    1.2801   -7.5325 C   0  0  0  0  0  0  0  0  0  0  0  0
    5.7983    1.4863   -4.7879 C   0  0  0  0  0  0  0  0  0  0  0  0
    5.4270    1.4514   -3.4490 C   0  0  0  0  0  0  0  0  0  0  0  0
    5.9462    2.6202   -5.5208 O   0  0  0  0  0  0  0  0  0  0  0  0
    5.8949    3.8813   -4.8445 C   0  0  0  0  0  0  0  0  0  0  0  0
    7.1514    4.1013   -3.9866 C   0  0  0  0  0  0  0  0  0  0  0  0
    7.9320    5.2576   -4.6335 C   0  0  0  0  0  0  0  0  0  0  0  0
    6.9502    5.9647   -5.5843 C   0  0  0  0  0  0  0  0  0  0  0  0
    5.9311    4.8961   -6.0023 C   0  0  0  0  0  0  0  0  0  0  0  0
   -0.4022    0.0005    0.9013 H   0  0  0  0  0  0  0  0  0  0  0  0
    1.9663    2.1857   -1.4317 H   0  0  0  0  0  0  0  0  0  0  0  0
    2.7933    1.4042   -2.7871 H   0  0  0  0  0  0  0  0  0  0  0  0
    4.4322    2.3700   -1.1252 H   0  0  0  0  0  0  0  0  0  0  0  0
    3.7489    1.3762    0.1594 H   0  0  0  0  0  0  0  0  0  0  0  0
    4.7455   -1.9707   -1.0813 H   0  0  0  0  0  0  0  0  0  0  0  0
    3.9356   -1.0597    0.1921 H   0  0  0  0  0  0  0  0  0  0  0  0
    2.9681   -1.3147   -2.7383 H   0  0  0  0  0  0  0  0  0  0  0  0
    2.2681   -2.1409   -1.3398 H   0  0  0  0  0  0  0  0  0  0  0  0
    5.4189   -1.9199   -2.9758 H   0  0  0  0  0  0  0  0  0  0  0  0
    6.0824   -1.8628   -5.3522 H   0  0  0  0  0  0  0  0  0  0  0  0
    7.0695    0.8440   -8.4830 H   0  0  0  0  0  0  0  0  0  0  0  0
    7.5497    1.8236   -7.0447 H   0  0  0  0  0  0  0  0  0  0  0  0
    5.8648    1.9281   -7.6873 H   0  0  0  0  0  0  0  0  0  0  0  0
    5.2729    2.3814   -2.9066 H   0  0  0  0  0  0  0  0  0  0  0  0
    4.9540    3.9384   -4.2650 H   0  0  0  0  0  0  0  0  0  0  0  0
    7.7638    3.1815   -3.9457 H   0  0  0  0  0  0  0  0  0  0  0  0
    6.8850    4.3363   -2.9433 H   0  0  0  0  0  0  0  0  0  0  0  0
    8.3331    5.9509   -3.8780 H   0  0  0  0  0  0  0  0  0  0  0  0
    8.8027    4.8728   -5.1928 H   0  0  0  0  0  0  0  0  0  0  0  0
    6.4482    6.8040   -5.0728 H   0  0  0  0  0  0  0  0  0  0  0  0
    7.4665    6.3997   -6.4539 H   0  0  0  0  0  0  0  0  0  0  0  0
    4.9378    5.3234   -6.2034 H   0  0  0  0  0  0  0  0  0  0  0  0
    6.2450    4.3928   -6.9373 H   0  0  0  0  0  0  0  0  0  0  0  0
  1  2  1  0  0  0  0
  1 27  1  0  0  0  0
  2  3  2  0  0  0  0
  4  5  1  6  0  0  0
  4  2  1  0  0  0  0
  6 28  1  0  0  0  0
  6  4  1  0  0  0  0
  6  7  1  0  0  0  0
  7 31  1  0  0  0  0
  8  7  1  0  0  0  0
  8  9  1  0  0  0  0
  8 11  1  1  0  0  0
  9 33  1  0  0  0  0
 10  4  1  0  0  0  0
 10 35  1  0  0  0  0
 10  9  1  0  0  0  0
 11 12  3  0  0  0  0
 13  8  1  0  0  0  0
 14 36  1  0  0  0  0
 14 13  2  0  0  0  0
 15 14  1  0  0  0  0
 16 15  2  0  0  0  0
 16 19  1  0  0  0  0
 17 16  1  0  0  0  0
 18 39  1  0  0  0  0
 18 17  1  0  0  0  0
 19 20  2  0  0  0  0
 20 41  1  0  0  0  0
 20 13  1  0  0  0  0
 21 22  1  0  0  0  0
 21 19  1  0  0  0  0
 22 42  1  0  0  0  0
 22 23  1  0  0  0  0
 23 43  1  0  0  0  0
 23 44  1  0  0  0  0
 24 23  1  0  0  0  0
 24 45  1  0  0  0  0
 25 47  1  0  0  0  0
 25 24  1  0  0  0  0
 26 25  1  0  0  0  0
 26 22  1  0  0  0  0
 29  6  1  0  0  0  0
 30  7  1  0  0  0  0
 32  9  1  0  0  0  0
 34 10  1  0  0  0  0
 37 15  1  0  0  0  0
 38 18  1  0  0  0  0
 40 18  1  0  0  0  0
 46 24  1  0  0  0  0
 48 25  1  0  0  0  0
 49 26  1  0  0  0  0
 50 26  1  0  0  0  0
M  END
$$$$
