50
rmsd228.gzmat
O          0.00000        0.00000        0.00000
C          1.36160        0.00000        0.00000
O          1.96200        0.00000        1.04160
C          1.86800       -0.00050       -1.41760
H          0.99180       -0.07680       -2.11720
C          2.61310        1.31260       -1.70150
C          3.91540        1.40770       -0.90600
C          4.85540        0.22180       -1.24940
C          4.11230       -1.08750       -0.89120
C          2.78530       -1.21150       -1.64440
C          6.03720        0.31570       -0.39170
N          6.97520        0.39710        0.27890
C          5.35330        0.29110       -2.68150
C          5.41070       -0.82670       -3.50720
C          5.88160       -0.72010       -4.81490
C          6.32770        0.50800       -5.30540
O          6.71880        0.44640       -6.60300
C          7.31670        1.59970       -7.17920
C          6.31400        1.63590       -4.45580
C          5.82190        1.52070       -3.16210
O          6.77990        2.79220       -4.99510
C          7.14340        3.85180       -4.09920
C          8.32060        3.45220       -3.19620
C          9.55450        4.19180       -3.73550
C          9.01210        5.38610       -4.53910
C          7.63250        4.95420       -5.05650
H         -0.40140        0.00320        0.90190
H          1.96370        2.18070       -1.47740
H          2.83510        1.37420       -2.78870
H          4.41120        2.37620       -1.10060
H          3.70060        1.39910        0.18470
H          4.75320       -1.96640       -1.09040
H          3.92090       -1.10470        0.20540
H          2.97440       -1.30890       -2.73450
H          2.27070       -2.14490       -1.34330
H          5.10140       -1.80700       -3.14670
H          5.91470       -1.59330       -5.46560
H          7.57520        1.24430       -8.18530
H          8.21400        1.89710       -6.62740
H          6.59600        2.42250       -7.23160
H          5.81200        2.39030       -2.50820
H          6.24050        4.15120       -3.53330
H          8.47700        2.35820       -3.19910
H          8.12220        3.72630       -2.14570
H         10.22300        4.51620       -2.92260
H         10.15370        3.52780       -4.38320
H          8.92540        6.27810       -3.89560
H          9.68770        5.66340       -5.36260
H          6.92530        5.79510       -5.10170
H          7.70290        4.55730       -6.08750
