
     RDKit          3D

 50 52  0  0  0  0  0  0  0  0999 V2000
    0.3768   -0.1455    0.4816 O   0  0  0  0  0  0  0  0  0  0  0  0
    1.4134    0.7044    0.3277 C   0  0  0  0  0  0  0  0  0  0  0  0
    1.8926    1.3045    1.2584 O   0  0  0  0  0  0  0  0  0  0  0  0
    1.8572    0.8165   -1.1237 C   0  0  1  0  0  0  0  0  0  0  0  0
    1.0388    1.3616   -1.6273 H   0  0  0  0  0  0  0  0  0  0  0  0
    3.1548    1.6229   -1.2461 C   0  0  0  0  0  0  0  0  0  0  0  0
    4.3772    0.8399   -0.7517 C   0  0  0  0  0  0  0  0  0  0  0  0
    4.5312   -0.5516   -1.4240 C   0  0  2  0  0  0  0  0  0  0  0  0
    3.1944   -1.3279   -1.2260 C   0  0  0  0  0  0  0  0  0  0  0  0
    2.0046   -0.5595   -1.7967 C   0  0  0  0  0  0  0  0  0  0  0  0
    5.5947   -1.2933   -0.7200 C   0  0  0  0  0  0  0  0  0  0  0  0
    6.4193   -1.8969   -0.1729 N   0  0  0  0  0  0  0  0  0  0  0  0
    4.9413   -0.4913   -2.9101 C   0  0  0  0  0  0  0  0  0  0  0  0
    5.3525    0.6859   -3.5388 C   0  0  0  0  0  0  0  0  0  0  0  0
    5.7644    0.6641   -4.8747 C   0  0  0  0  0  0  0  0  0  0  0  0
    5.7827   -0.5171   -5.6137 C   0  0  0  0  0  0  0  0  0  0  0  0
    6.1564   -0.4516   -6.9195 O   0  0  0  0  0  0  0  0  0  0  0  0
    7.1744   -1.3253   -7.3854 C   0  0  0  0  0  0  0  0  0  0  0  0
    5.3681   -1.7189   -4.9864 C   0  0  0  0  0  0  0  0  0  0  0  0
    4.9625   -1.6852   -3.6495 C   0  0  0  0  0  0  0  0  0  0  0  0
    5.3655   -2.8359   -5.7552 O   0  0  0  0  0  0  0  0  0  0  0  0
    5.2082   -4.1294   -5.1597 C   0  0  0  0  0  0  0  0  0  0  0  0
    5.1948   -5.1327   -6.3119 C   0  0  0  0  0  0  0  0  0  0  0  0
    6.6845   -5.3629   -6.6691 C   0  0  0  0  0  0  0  0  0  0  0  0
    7.4971   -4.8373   -5.4530 C   0  0  0  0  0  0  0  0  0  0  0  0
    6.4545   -4.5302   -4.3624 C   0  0  0  0  0  0  0  0  0  0  0  0
    0.1488   -0.1372    1.4272 H   0  0  0  0  0  0  0  0  0  0  0  0
    3.0714    2.5520   -0.6643 H   0  0  0  0  0  0  0  0  0  0  0  0
    3.2803    1.9046   -2.3013 H   0  0  0  0  0  0  0  0  0  0  0  0
    5.2962    1.4270   -0.8905 H   0  0  0  0  0  0  0  0  0  0  0  0
    4.2777    0.6785    0.3316 H   0  0  0  0  0  0  0  0  0  0  0  0
    3.2627   -2.3251   -1.6815 H   0  0  0  0  0  0  0  0  0  0  0  0
    3.0529   -1.4954   -0.1454 H   0  0  0  0  0  0  0  0  0  0  0  0
    2.1490   -0.4083   -2.8782 H   0  0  0  0  0  0  0  0  0  0  0  0
    1.0838   -1.1450   -1.6682 H   0  0  0  0  0  0  0  0  0  0  0  0
    5.3821    1.6313   -3.0002 H   0  0  0  0  0  0  0  0  0  0  0  0
    6.0914    1.5765   -5.3766 H   0  0  0  0  0  0  0  0  0  0  0  0
    7.5400   -0.9005   -8.3308 H   0  0  0  0  0  0  0  0  0  0  0  0
    6.7944   -2.3418   -7.5600 H   0  0  0  0  0  0  0  0  0  0  0  0
    8.0142   -1.3745   -6.6694 H   0  0  0  0  0  0  0  0  0  0  0  0
    4.6705   -2.6142   -3.1649 H   0  0  0  0  0  0  0  0  0  0  0  0
    4.2759   -4.1503   -4.5707 H   0  0  0  0  0  0  0  0  0  0  0  0
    4.5901   -4.7612   -7.1514 H   0  0  0  0  0  0  0  0  0  0  0  0
    4.7304   -6.0642   -5.9527 H   0  0  0  0  0  0  0  0  0  0  0  0
    6.8821   -6.4276   -6.8644 H   0  0  0  0  0  0  0  0  0  0  0  0
    6.9591   -4.8211   -7.5863 H   0  0  0  0  0  0  0  0  0  0  0  0
    8.2570   -5.5529   -5.1067 H   0  0  0  0  0  0  0  0  0  0  0  0
    8.0290   -3.9129   -5.7234 H   0  0  0  0  0  0  0  0  0  0  0  0
    6.2126   -5.4363   -3.7821 H   0  0  0  0  0  0  0  0  0  0  0  0
    6.7802   -3.7627   -3.6461 H   0  0  0  0  0  0  0  0  0  0  0  0
  1  2  1  0
  1 27  1  0
  2  3  2  0
  2  4  1  0
  4  5  1  6
  4  6  1  0
  4 10  1  0
  6  7  1  0
  6 28  1  0
  6 29  1  0
  7  8  1  0
  7 30  1  0
  7 31  1  0
  8  9  1  0
  8 11  1  1
  8 13  1  0
  9 10  1  0
  9 32  1  0
  9 33  1  0
 10 34  1  0
 10 35  1  0
 11 12  3  0
 13 14  2  0
 13 20  1  0
 14 15  1  0
 14 36  1  0
 15 16  2  0
 15 37  1  0
 16 17  1  0
 16 19  1  0
 17 18  1  0
 18 38  1  0
 18 39  1  0
 18 40  1  0
 19 20  2  0
 19 21  1  0
 20 41  1  0
 21 22  1  0
 22 23  1  0
 22 26  1  0
 22 42  1  0
 23 24  1  0
 23 43  1  0
 23 44  1  0
 24 25  1  0
 24 45  1  0
 24 46  1  0
 25 26  1  0
 25 47  1  0
 25 48  1  0
 26 49  1  0
 26 50  1  0
M  END

