rmsd228.gzmat
 OpenBabel08211713423D

 50 52  0  0  1  0  0  0  0  0999 V2000
    0.0000    0.0000    0.0000 O   0  0  0  0  0  0  0  0  0  0  0  0
    1.3616    0.0000    0.0000 C   0  0  0  0  0  0  0  0  0  0  0  0
    1.9620    0.0000    1.0416 O   0  0  0  0  0  0  0  0  0  0  0  0
    1.8680   -0.0005   -1.4176 C   0  0  1  0  0  0  0  0  0  0  0  0
    0.9918   -0.0768   -2.1172 H   0  0  0  0  0  0  0  0  0  0  0  0
    2.6131    1.3126   -1.7015 C   0  0  0  0  0  0  0  0  0  0  0  0
    3.9154    1.4077   -0.9060 C   0  0  0  0  0  0  0  0  0  0  0  0
    4.8554    0.2218   -1.2494 C   0  0  2  0  0  0  0  0  0  0  0  0
    4.1123   -1.0875   -0.8912 C   0  0  0  0  0  0  0  0  0  0  0  0
    2.7853   -1.2115   -1.6444 C   0  0  0  0  0  0  0  0  0  0  0  0
    6.0372    0.3157   -0.3917 C   0  0  0  0  0  0  0  0  0  0  0  0
    6.9752    0.3971    0.2789 N   0  0  0  0  0  0  0  0  0  0  0  0
    5.3533    0.2911   -2.6815 C   0  0  0  0  0  0  0  0  0  0  0  0
    5.4107   -0.8267   -3.5072 C   0  0  0  0  0  0  0  0  0  0  0  0
    5.8816   -0.7201   -4.8149 C   0  0  0  0  0  0  0  0  0  0  0  0
    6.3277    0.5080   -5.3054 C   0  0  0  0  0  0  0  0  0  0  0  0
    6.7188    0.4464   -6.6030 O   0  0  0  0  0  0  0  0  0  0  0  0
    7.3167    1.5997   -7.1792 C   0  0  0  0  0  0  0  0  0  0  0  0
    6.3140    1.6359   -4.4558 C   0  0  0  0  0  0  0  0  0  0  0  0
    5.8219    1.5207   -3.1621 C   0  0  0  0  0  0  0  0  0  0  0  0
    6.7799    2.7922   -4.9951 O   0  0  0  0  0  0  0  0  0  0  0  0
    7.1434    3.8518   -4.0992 C   0  0  0  0  0  0  0  0  0  0  0  0
    8.3206    3.4522   -3.1962 C   0  0  0  0  0  0  0  0  0  0  0  0
    9.5545    4.1918   -3.7355 C   0  0  0  0  0  0  0  0  0  0  0  0
    9.0121    5.3861   -4.5391 C   0  0  0  0  0  0  0  0  0  0  0  0
    7.6325    4.9542   -5.0565 C   0  0  0  0  0  0  0  0  0  0  0  0
   -0.4014    0.0032    0.9019 H   0  0  0  0  0  0  0  0  0  0  0  0
    1.9637    2.1807   -1.4774 H   0  0  0  0  0  0  0  0  0  0  0  0
    2.8351    1.3742   -2.7887 H   0  0  0  0  0  0  0  0  0  0  0  0
    4.4112    2.3762   -1.1006 H   0  0  0  0  0  0  0  0  0  0  0  0
    3.7006    1.3991    0.1847 H   0  0  0  0  0  0  0  0  0  0  0  0
    4.7532   -1.9664   -1.0904 H   0  0  0  0  0  0  0  0  0  0  0  0
    3.9209   -1.1047    0.2054 H   0  0  0  0  0  0  0  0  0  0  0  0
    2.9744   -1.3089   -2.7345 H   0  0  0  0  0  0  0  0  0  0  0  0
    2.2707   -2.1449   -1.3433 H   0  0  0  0  0  0  0  0  0  0  0  0
    5.1014   -1.8070   -3.1467 H   0  0  0  0  0  0  0  0  0  0  0  0
    5.9147   -1.5933   -5.4656 H   0  0  0  0  0  0  0  0  0  0  0  0
    7.5752    1.2443   -8.1853 H   0  0  0  0  0  0  0  0  0  0  0  0
    8.2140    1.8971   -6.6274 H   0  0  0  0  0  0  0  0  0  0  0  0
    6.5960    2.4225   -7.2316 H   0  0  0  0  0  0  0  0  0  0  0  0
    5.8120    2.3903   -2.5082 H   0  0  0  0  0  0  0  0  0  0  0  0
    6.2405    4.1512   -3.5333 H   0  0  0  0  0  0  0  0  0  0  0  0
    8.4770    2.3582   -3.1991 H   0  0  0  0  0  0  0  0  0  0  0  0
    8.1222    3.7263   -2.1457 H   0  0  0  0  0  0  0  0  0  0  0  0
   10.2230    4.5162   -2.9226 H   0  0  0  0  0  0  0  0  0  0  0  0
   10.1537    3.5278   -4.3832 H   0  0  0  0  0  0  0  0  0  0  0  0
    8.9254    6.2781   -3.8956 H   0  0  0  0  0  0  0  0  0  0  0  0
    9.6877    5.6634   -5.3626 H   0  0  0  0  0  0  0  0  0  0  0  0
    6.9253    5.7951   -5.1017 H   0  0  0  0  0  0  0  0  0  0  0  0
    7.7029    4.5573   -6.0875 H   0  0  0  0  0  0  0  0  0  0  0  0
  1  2  1  0  0  0  0
  1 27  1  0  0  0  0
  2  3  2  0  0  0  0
  4  5  1  6  0  0  0
  4  2  1  0  0  0  0
  6 28  1  0  0  0  0
  6  4  1  0  0  0  0
  6  7  1  0  0  0  0
  7 31  1  0  0  0  0
  8  7  1  0  0  0  0
  8  9  1  0  0  0  0
  8 11  1  1  0  0  0
  9 33  1  0  0  0  0
 10  4  1  0  0  0  0
 10 35  1  0  0  0  0
 10  9  1  0  0  0  0
 11 12  3  0  0  0  0
 13  8  1  0  0  0  0
 14 36  1  0  0  0  0
 14 13  2  0  0  0  0
 15 14  1  0  0  0  0
 16 15  2  0  0  0  0
 16 19  1  0  0  0  0
 17 16  1  0  0  0  0
 18 39  1  0  0  0  0
 18 17  1  0  0  0  0
 19 20  2  0  0  0  0
 20 13  1  0  0  0  0
 20 41  1  0  0  0  0
 21 19  1  0  0  0  0
 21 22  1  0  0  0  0
 22 42  1  0  0  0  0
 22 23  1  0  0  0  0
 23 44  1  0  0  0  0
 24 23  1  0  0  0  0
 24 45  1  0  0  0  0
 25 47  1  0  0  0  0
 25 24  1  0  0  0  0
 26 25  1  0  0  0  0
 26 22  1  0  0  0  0
 29  6  1  0  0  0  0
 30  7  1  0  0  0  0
 32  9  1  0  0  0  0
 34 10  1  0  0  0  0
 37 15  1  0  0  0  0
 38 18  1  0  0  0  0
 40 18  1  0  0  0  0
 43 23  1  0  0  0  0
 46 24  1  0  0  0  0
 48 25  1  0  0  0  0
 49 26  1  0  0  0  0
 50 26  1  0  0  0  0
M  END
$$$$
