rmsd138.gzmat
 OpenBabel08211713423D

 50 52  0  0  1  0  0  0  0  0999 V2000
    0.0000    0.0000    0.0000 O   0  0  0  0  0  0  0  0  0  0  0  0
    1.3618    0.0000    0.0000 C   0  0  0  0  0  0  0  0  0  0  0  0
    1.9633    0.0000    1.0409 O   0  0  0  0  0  0  0  0  0  0  0  0
    1.8660    0.0030   -1.4184 C   0  0  1  0  0  0  0  0  0  0  0  0
    0.9890   -0.0740   -2.1167 H   0  0  0  0  0  0  0  0  0  0  0  0
    2.6017    1.3226   -1.6997 C   0  0  0  0  0  0  0  0  0  0  0  0
    3.9287    1.4101   -0.9436 C   0  0  0  0  0  0  0  0  0  0  0  0
    4.8518    0.2213   -1.3154 C   0  0  2  0  0  0  0  0  0  0  0  0
    4.1113   -1.0748   -0.8983 C   0  0  0  0  0  0  0  0  0  0  0  0
    2.7842   -1.2079   -1.6483 C   0  0  0  0  0  0  0  0  0  0  0  0
    6.0745    0.3251   -0.5205 C   0  0  0  0  0  0  0  0  0  0  0  0
    7.0436    0.4074    0.1045 N   0  0  0  0  0  0  0  0  0  0  0  0
    5.2751    0.2275   -2.7736 C   0  0  0  0  0  0  0  0  0  0  0  0
    5.5747   -0.9611   -3.4352 C   0  0  0  0  0  0  0  0  0  0  0  0
    5.9815   -0.9593   -4.7708 C   0  0  0  0  0  0  0  0  0  0  0  0
    6.0976    0.2431   -5.4557 C   0  0  0  0  0  0  0  0  0  0  0  0
    6.4404    0.3822   -6.7665 O   0  0  0  0  0  0  0  0  0  0  0  0
    6.8841   -0.7882   -7.4395 C   0  0  0  0  0  0  0  0  0  0  0  0
    5.8282    1.4570   -4.7859 C   0  0  0  0  0  0  0  0  0  0  0  0
    5.4233    1.4407   -3.4531 C   0  0  0  0  0  0  0  0  0  0  0  0
    5.8484    2.6902   -5.3471 O   0  0  0  0  0  0  0  0  0  0  0  0
    6.8587    2.9644   -6.3309 C   0  0  0  0  0  0  0  0  0  0  0  0
    6.2271    2.8762   -7.7293 C   0  0  0  0  0  0  0  0  0  0  0  0
    6.0817    4.3194   -8.2363 C   0  0  0  0  0  0  0  0  0  0  0  0
    7.0859    5.1540   -7.4215 C   0  0  0  0  0  0  0  0  0  0  0  0
    7.2205    4.4390   -6.0698 C   0  0  0  0  0  0  0  0  0  0  0  0
   -0.4035    0.0049    0.9003 H   0  0  0  0  0  0  0  0  0  0  0  0
    1.9580    2.1853   -1.4399 H   0  0  0  0  0  0  0  0  0  0  0  0
    2.7849    1.4049   -2.7930 H   0  0  0  0  0  0  0  0  0  0  0  0
    4.4267    2.3766   -1.1451 H   0  0  0  0  0  0  0  0  0  0  0  0
    3.7440    1.3978    0.1532 H   0  0  0  0  0  0  0  0  0  0  0  0
    4.7439   -1.9648   -1.0669 H   0  0  0  0  0  0  0  0  0  0  0  0
    3.9274   -1.0508    0.1991 H   0  0  0  0  0  0  0  0  0  0  0  0
    2.9768   -1.3073   -2.7379 H   0  0  0  0  0  0  0  0  0  0  0  0
    2.2713   -2.1417   -1.3474 H   0  0  0  0  0  0  0  0  0  0  0  0
    5.5039   -1.9165   -2.9173 H   0  0  0  0  0  0  0  0  0  0  0  0
    6.2012   -1.9044   -5.2594 H   0  0  0  0  0  0  0  0  0  0  0  0
    7.1372   -0.3990   -8.4355 H   0  0  0  0  0  0  0  0  0  0  0  0
    6.0774   -1.5242   -7.5129 H   0  0  0  0  0  0  0  0  0  0  0  0
    7.7702   -1.2107   -6.9562 H   0  0  0  0  0  0  0  0  0  0  0  0
    5.2384    2.3958   -2.9601 H   0  0  0  0  0  0  0  0  0  0  0  0
    7.7174    2.2817   -6.2001 H   0  0  0  0  0  0  0  0  0  0  0  0
    5.2523    2.3586   -7.6795 H   0  0  0  0  0  0  0  0  0  0  0  0
    6.8586    2.2772   -8.4049 H   0  0  0  0  0  0  0  0  0  0  0  0
    6.2710    4.3952   -9.3171 H   0  0  0  0  0  0  0  0  0  0  0  0
    5.0529    4.6839   -8.0715 H   0  0  0  0  0  0  0  0  0  0  0  0
    8.0601    5.2017   -7.9371 H   0  0  0  0  0  0  0  0  0  0  0  0
    6.7467    6.1939   -7.3014 H   0  0  0  0  0  0  0  0  0  0  0  0
    8.2278    4.5420   -5.6415 H   0  0  0  0  0  0  0  0  0  0  0  0
    6.5216    4.8673   -5.3241 H   0  0  0  0  0  0  0  0  0  0  0  0
  1 27  1  0  0  0  0
  2  1  1  0  0  0  0
  2  3  2  0  0  0  0
  4  5  1  6  0  0  0
  4  2  1  0  0  0  0
  6 28  1  0  0  0  0
  6  4  1  0  0  0  0
  6  7  1  0  0  0  0
  7 31  1  0  0  0  0
  8  7  1  0  0  0  0
  8  9  1  0  0  0  0
  8 11  1  1  0  0  0
  9 33  1  0  0  0  0
 10  4  1  0  0  0  0
 10 35  1  0  0  0  0
 10  9  1  0  0  0  0
 11 12  3  0  0  0  0
 13  8  1  0  0  0  0
 14 36  1  0  0  0  0
 14 13  1  0  0  0  0
 15 14  2  0  0  0  0
 16 19  2  0  0  0  0
 16 15  1  0  0  0  0
 17 16  1  0  0  0  0
 18 40  1  0  0  0  0
 18 17  1  0  0  0  0
 19 20  1  0  0  0  0
 20 41  1  0  0  0  0
 20 13  2  0  0  0  0
 21 19  1  0  0  0  0
 22 42  1  0  0  0  0
 22 26  1  0  0  0  0
 22 21  1  0  0  0  0
 23 43  1  0  0  0  0
 23 22  1  0  0  0  0
 24 46  1  0  0  0  0
 24 23  1  0  0  0  0
 24 25  1  0  0  0  0
 25 48  1  0  0  0  0
 25 26  1  0  0  0  0
 26 49  1  0  0  0  0
 26 50  1  0  0  0  0
 29  6  1  0  0  0  0
 30  7  1  0  0  0  0
 32  9  1  0  0  0  0
 34 10  1  0  0  0  0
 37 15  1  0  0  0  0
 38 18  1  0  0  0  0
 39 18  1  0  0  0  0
 44 23  1  0  0  0  0
 45 24  1  0  0  0  0
 47 25  1  0  0  0  0
M  END
$$$$
