36
rmsd99.gzmat
C          0.00000        0.00000        0.00000
C          1.39990        0.00000        0.00000
C          2.10670        0.00000        1.18940
C          1.40350        0.00900        2.41640
C         -0.01050        0.00620        2.41860
C         -0.69400        0.00110        1.21450
N          2.09530        0.02870        3.60450
S         -0.86700        0.00030       -1.49750
O         -2.27790        0.20590       -1.26670
O         -0.13590        0.74750       -2.48530
N         -0.81740       -1.69650       -1.97820
C          0.33380       -2.28030       -2.47470
C          1.48800       -1.73430       -3.04690
C          2.35130       -2.84300       -3.29860
N          1.76800       -3.99990       -2.92690
N          0.55530       -3.67140       -2.37980
C         -0.35840       -4.69600       -2.02190
C         -0.41270       -5.87780       -2.77330
C         -1.32520       -6.86580       -2.41940
C         -2.17920       -6.67900       -1.33300
C         -2.10680       -5.50790       -0.58070
C         -1.19090       -4.51330       -0.90980
H          1.95860       -0.00130       -0.94660
H          3.19120       -0.00730        1.18280
H         -0.55230        0.01000        3.35720
H         -1.79290        0.00370        1.22800
H          1.62280        0.02470        4.48020
H          3.09070        0.01330        3.62410
H         -1.69790       -2.17350       -2.16950
H          1.66990       -0.71100       -3.30210
H          3.33550       -2.82280       -3.73110
H          0.26410       -6.01640       -3.61900
H         -1.37020       -7.78880       -2.99700
H         -2.89820       -7.45170       -1.06750
H         -2.76640       -5.36970        0.27530
H         -1.10920       -3.61630       -0.29620
