36
rmsd207.gzmat
C          0.00000        0.00000        0.00000
C          1.39990        0.00000        0.00000
C          2.10520        0.00000        1.19120
C          1.40040        0.00410        2.41690
C         -0.01360        0.01050        2.41860
C         -0.69560        0.00720        1.21420
N          2.08700       -0.00460        3.60810
S         -0.87460       -0.01660       -1.48880
O         -2.21760        0.48220       -1.31100
O         -0.04400        0.46350       -2.56740
N         -1.13430       -1.73480       -1.81670
C         -0.03820       -2.54960       -2.07240
C          0.95600       -3.01870       -1.20520
C          1.79010       -3.85900       -2.00030
N          1.33390       -3.92100       -3.27180
N          0.24920       -3.09990       -3.33590
C         -0.51290       -2.99870       -4.53300
C         -0.83180       -1.72680       -5.02380
C         -1.61920       -1.62720       -6.16640
C         -2.06390       -2.77690       -6.81870
C         -1.71140       -4.03770       -6.33930
C         -0.93140       -4.15920       -5.19310
H          1.95850       -0.00080       -0.94760
H          3.18960       -0.00590        1.18590
H         -0.55600        0.01750        3.35690
H         -1.79450        0.01290        1.22550
H          1.60850        0.01100        4.48060
H          3.08140        0.02010        3.63470
H         -1.99150       -1.98190       -2.31330
H          1.05370       -2.81910       -0.16350
H          2.66650       -4.39890       -1.69310
H         -0.44850       -0.82510       -4.53110
H         -1.88130       -0.64290       -6.55500
H         -2.68200       -2.68900       -7.71070
H         -2.04610       -4.93340       -6.86120
H         -0.63670       -5.13860       -4.81430
