rmsd219.gzmat
 OpenBabel08211713393D

 36 38  0  0  0  0  0  0  0  0999 V2000
    0.0000    0.0000    0.0000 C   0  0  0  0  0  0  0  0  0  0  0  0
    1.3992    0.0000    0.0000 C   0  0  0  0  0  0  0  0  0  0  0  0
    2.1050    0.0000    1.1910 C   0  0  0  0  0  0  0  0  0  0  0  0
    1.4010    0.0032    2.4172 C   0  0  0  0  0  0  0  0  0  0  0  0
   -0.0128    0.0218    2.4192 C   0  0  0  0  0  0  0  0  0  0  0  0
   -0.6956    0.0211    1.2155 C   0  0  0  0  0  0  0  0  0  0  0  0
    2.0898   -0.0150    3.6071 N   0  0  0  0  0  0  0  0  0  0  0  0
   -0.8697   -0.0375   -1.4913 S   0  0  0  0  0  0  0  0  0  0  0  0
   -2.2341    0.3866   -1.2813 O   0  0  0  0  0  0  0  0  0  0  0  0
   -0.0870    0.5064   -2.5740 O   0  0  0  0  0  0  0  0  0  0  0  0
   -0.9740   -1.7574   -1.8926 N   0  0  0  0  0  0  0  0  0  0  0  0
   -1.5174   -2.6449   -0.9728 C   0  0  0  0  0  0  0  0  0  0  0  0
   -0.9967   -3.0987    0.2455 C   0  0  0  0  0  0  0  0  0  0  0  0
   -1.9467   -4.0388    0.7415 C   0  0  0  0  0  0  0  0  0  0  0  0
   -2.9805   -4.1722   -0.1193 N   0  0  0  0  0  0  0  0  0  0  0  0
   -2.7508   -3.3025   -1.1432 N   0  0  0  0  0  0  0  0  0  0  0  0
   -3.6338   -3.2630   -2.2585 C   0  0  0  0  0  0  0  0  0  0  0  0
   -4.0459   -4.4561   -2.8628 C   0  0  0  0  0  0  0  0  0  0  0  0
   -4.8907   -4.3966   -3.9670 C   0  0  0  0  0  0  0  0  0  0  0  0
   -5.3200   -3.1640   -4.4571 C   0  0  0  0  0  0  0  0  0  0  0  0
   -4.9210   -1.9828   -3.8329 C   0  0  0  0  0  0  0  0  0  0  0  0
   -4.0828   -2.0212   -2.7232 C   0  0  0  0  0  0  0  0  0  0  0  0
    1.9564    0.0008   -0.9470 H   0  0  0  0  0  0  0  0  0  0  0  0
    3.1886   -0.0042    1.1863 H   0  0  0  0  0  0  0  0  0  0  0  0
   -0.5546    0.0317    3.3586 H   0  0  0  0  0  0  0  0  0  0  0  0
   -1.7952    0.0365    1.2289 H   0  0  0  0  0  0  0  0  0  0  0  0
    1.6147   -0.0008    4.4818 H   0  0  0  0  0  0  0  0  0  0  0  0
    3.0844   -0.0210    3.6309 H   0  0  0  0  0  0  0  0  0  0  0  0
   -1.1208   -1.9937   -2.8742 H   0  0  0  0  0  0  0  0  0  0  0  0
   -0.0720   -2.8232    0.6970 H   0  0  0  0  0  0  0  0  0  0  0  0
   -1.9030   -4.5991    1.6571 H   0  0  0  0  0  0  0  0  0  0  0  0
   -3.7147   -5.4140   -2.4599 H   0  0  0  0  0  0  0  0  0  0  0  0
   -5.2180   -5.3182   -4.4472 H   0  0  0  0  0  0  0  0  0  0  0  0
   -5.9750   -3.1244   -5.3257 H   0  0  0  0  0  0  0  0  0  0  0  0
   -5.2716   -1.0212   -4.2071 H   0  0  0  0  0  0  0  0  0  0  0  0
   -3.8005   -1.0937   -2.2104 H   0  0  0  0  0  0  0  0  0  0  0  0
  1  2  2  0  0  0  0
  1  6  1  0  0  0  0
  2  3  1  0  0  0  0
  3  4  2  0  0  0  0
  4  5  1  0  0  0  0
  4  7  1  0  0  0  0
  5 25  1  0  0  0  0
  6 26  1  0  0  0  0
  6  5  2  0  0  0  0
  7 28  1  0  0  0  0
  7 27  1  0  0  0  0
  8  9  2  0  0  0  0
  8  1  1  0  0  0  0
 10  8  2  0  0  0  0
 11  8  1  0  0  0  0
 11 12  1  0  0  0  0
 12 13  2  0  0  0  0
 13 30  1  0  0  0  0
 13 14  1  0  0  0  0
 14 31  1  0  0  0  0
 15 14  2  0  0  0  0
 16 12  1  0  0  0  0
 16 15  1  0  0  0  0
 17 16  1  0  0  0  0
 18 32  1  0  0  0  0
 18 17  2  0  0  0  0
 19 18  1  0  0  0  0
 20 19  2  0  0  0  0
 20 21  1  0  0  0  0
 21 22  2  0  0  0  0
 22 17  1  0  0  0  0
 22 36  1  0  0  0  0
 23  2  1  0  0  0  0
 24  3  1  0  0  0  0
 29 11  1  0  0  0  0
 33 19  1  0  0  0  0
 34 20  1  0  0  0  0
 35 21  1  0  0  0  0
M  END
$$$$
