36

C          0.09060       -0.01800       -0.03850
C          1.48730       -0.02790        0.02390
C          2.11720       -0.00060        1.26140
C          1.36250        0.03810        2.45580
C         -0.04990        0.05330        2.36410
C         -0.68020        0.02570        1.12910
N          1.98280        0.03060        3.67820
S         -0.71860       -0.09010       -1.60530
O         -1.98450        0.64230       -1.56780
O          0.28640        0.17910       -2.64220
N         -1.21660       -1.73430       -1.68550
C         -0.27760       -2.72620       -1.96930
C          0.65080       -3.32130       -1.12880
C          1.29490       -4.28360       -1.94110
N          0.80160       -4.29940       -3.17410
N         -0.13450       -3.32820       -3.20160
C         -0.91260       -3.12330       -4.37480
C         -1.16870       -1.82810       -4.84230
C         -1.95500       -1.66010       -5.98540
C         -2.45820       -2.76850       -6.67070
C         -2.17130       -4.05830       -6.21090
C         -1.40420       -4.24090       -5.06080
H          2.06440       -0.05610       -0.90100
H          3.20860       -0.00820        1.31520
H         -0.64670        0.09060        3.27890
H         -1.76890        0.04590        1.05780
H          1.44600        0.27080        4.50090
H          2.97290        0.23090        3.72540
H         -2.10170       -1.77490       -2.19120
H          0.80830       -3.08890       -0.07960
H          2.09340       -4.97370       -1.66980
H         -0.73120       -0.96750       -4.33600
H         -2.15640       -0.65040       -6.35020
H         -3.06590       -2.62920       -7.56770
H         -2.55320       -4.92960       -6.74830
H         -1.16650       -5.23630       -4.68480
