36
rmsd8.gzmat
C          0.00000        0.00000        0.00000
C          1.39990        0.00000        0.00000
C          2.10670        0.00000        1.18940
C          1.40370        0.00880        2.41650
C         -0.01010        0.02540        2.41870
C         -0.69330        0.01780        1.21440
N          2.09560        0.00430        3.60450
S         -0.86990       -0.03500       -1.49610
O         -2.28520        0.13760       -1.26470
O         -0.16200        0.71870       -2.49560
N         -0.77460       -1.73630       -1.95280
C          0.39910       -2.29820       -2.41980
C          1.53400       -1.73270       -3.01200
C          2.44610       -2.81400       -3.20050
N          1.90870       -3.97490       -2.77490
N          0.67840       -3.67220       -2.25460
C         -0.19610       -4.71600       -1.85530
C         -0.21850       -5.92160       -2.56860
C         -1.09870       -6.92490       -2.17750
C         -1.94420       -6.73350       -1.08520
C         -1.89920       -5.53970       -0.36710
C         -1.02260       -4.52520       -0.73970
H          1.95900       -0.00450       -0.94660
H          3.19130       -0.01030        1.18340
H         -0.55210        0.04450        3.35690
H         -1.79210        0.02930        1.22760
H          1.62310       -0.00260        4.48010
H          3.09110       -0.00950        3.62430
H         -1.63860       -2.24770       -2.12570
H          1.67350       -0.71600       -3.31560
H          3.43310       -2.77290       -3.62460
H          0.45710       -6.06650       -3.41390
H         -1.12600       -7.86330       -2.73150
H         -2.63660       -7.51950       -0.79030
H         -2.55030       -5.39860        0.49500
H         -0.96420       -3.60560       -0.15790
