36
rmsd202.gzmat
C          0.00000        0.00000        0.00000
C          1.39990        0.00000        0.00000
C          2.10620        0.00000        1.19050
C          1.40310        0.00000        2.41710
C         -0.01060        0.00000        2.41940
C         -0.69380        0.00210        1.21530
N          2.09250       -0.00540        3.60690
S         -0.87030        0.01040       -1.49280
O         -2.15060        0.66060       -1.34610
O          0.01360        0.35200       -2.58190
N         -1.32670       -1.67700       -1.75640
C         -0.34010       -2.63080       -1.97490
C          0.59520       -3.17540       -1.08660
C          1.30190       -4.16270       -1.83480
N          0.82790       -4.23560       -3.09910
N         -0.14160       -3.28440       -3.20600
C         -0.88120       -3.14020       -4.41300
C         -1.00710       -1.86600       -4.97920
C         -1.76120       -1.71830       -6.13880
C         -2.36240       -2.82680       -6.73470
C         -2.20660       -4.09470       -6.17690
C         -1.46300       -4.26230       -5.01240
H          1.95700        0.00300       -0.94840
H          3.19050       -0.00160        1.18530
H         -0.55320       -0.00080        3.35760
H         -1.79210        0.00950        1.22910
H          1.61700        0.01350        4.48090
H          3.08680        0.02500        3.63050
H         -2.20910       -1.83820       -2.24440
H          0.73510       -2.92840       -0.06020
H          2.10100       -4.79700       -1.49840
H         -0.50220       -1.00250       -4.53030
H         -1.87390       -0.72990       -6.58460
H         -2.94980       -2.70240       -7.64280
H         -2.66460       -4.96120       -6.65250
H         -1.32230       -5.25070       -4.57430
