36
rmsd219.gzmat
C          0.00000        0.00000        0.00000
C          1.39920        0.00000        0.00000
C          2.10500        0.00000        1.19100
C          1.40100        0.00320        2.41720
C         -0.01280        0.02180        2.41920
C         -0.69560        0.02110        1.21550
N          2.08980       -0.01500        3.60710
S         -0.86970       -0.03750       -1.49130
O         -2.23410        0.38660       -1.28130
O         -0.08700        0.50640       -2.57400
N         -0.97400       -1.75740       -1.89260
C         -1.51740       -2.64490       -0.97280
C         -0.99670       -3.09870        0.24550
C         -1.94670       -4.03880        0.74150
N         -2.98050       -4.17220       -0.11930
N         -2.75080       -3.30250       -1.14320
C         -3.63380       -3.26300       -2.25850
C         -4.04590       -4.45610       -2.86280
C         -4.89070       -4.39660       -3.96700
C         -5.32000       -3.16400       -4.45710
C         -4.92100       -1.98280       -3.83290
C         -4.08280       -2.02120       -2.72320
H          1.95640        0.00080       -0.94700
H          3.18860       -0.00420        1.18630
H         -0.55460        0.03170        3.35860
H         -1.79520        0.03650        1.22890
H          1.61470       -0.00080        4.48180
H          3.08440       -0.02100        3.63090
H         -1.12080       -1.99370       -2.87420
H         -0.07200       -2.82320        0.69700
H         -1.90300       -4.59910        1.65710
H         -3.71470       -5.41400       -2.45990
H         -5.21800       -5.31820       -4.44720
H         -5.97500       -3.12440       -5.32570
H         -5.27160       -1.02120       -4.20710
H         -3.80050       -1.09370       -2.21040
