rmsd8.gzmat
 OpenBabel08211713393D

 36 38  0  0  0  0  0  0  0  0999 V2000
    0.0000    0.0000    0.0000 C   0  0  0  0  0  0  0  0  0  0  0  0
    1.3999    0.0000    0.0000 C   0  0  0  0  0  0  0  0  0  0  0  0
    2.1067    0.0000    1.1894 C   0  0  0  0  0  0  0  0  0  0  0  0
    1.4037    0.0088    2.4165 C   0  0  0  0  0  0  0  0  0  0  0  0
   -0.0101    0.0254    2.4187 C   0  0  0  0  0  0  0  0  0  0  0  0
   -0.6933    0.0178    1.2144 C   0  0  0  0  0  0  0  0  0  0  0  0
    2.0956    0.0043    3.6045 N   0  0  0  0  0  0  0  0  0  0  0  0
   -0.8699   -0.0350   -1.4961 S   0  0  0  0  0  0  0  0  0  0  0  0
   -2.2852    0.1376   -1.2647 O   0  0  0  0  0  0  0  0  0  0  0  0
   -0.1620    0.7187   -2.4956 O   0  0  0  0  0  0  0  0  0  0  0  0
   -0.7746   -1.7363   -1.9528 N   0  0  0  0  0  0  0  0  0  0  0  0
    0.3991   -2.2982   -2.4198 C   0  0  0  0  0  0  0  0  0  0  0  0
    1.5340   -1.7327   -3.0120 C   0  0  0  0  0  0  0  0  0  0  0  0
    2.4461   -2.8140   -3.2005 C   0  0  0  0  0  0  0  0  0  0  0  0
    1.9087   -3.9749   -2.7749 N   0  0  0  0  0  0  0  0  0  0  0  0
    0.6784   -3.6722   -2.2546 N   0  0  0  0  0  0  0  0  0  0  0  0
   -0.1961   -4.7160   -1.8553 C   0  0  0  0  0  0  0  0  0  0  0  0
   -0.2185   -5.9216   -2.5686 C   0  0  0  0  0  0  0  0  0  0  0  0
   -1.0987   -6.9249   -2.1775 C   0  0  0  0  0  0  0  0  0  0  0  0
   -1.9442   -6.7335   -1.0852 C   0  0  0  0  0  0  0  0  0  0  0  0
   -1.8992   -5.5397   -0.3671 C   0  0  0  0  0  0  0  0  0  0  0  0
   -1.0226   -4.5252   -0.7397 C   0  0  0  0  0  0  0  0  0  0  0  0
    1.9590   -0.0045   -0.9466 H   0  0  0  0  0  0  0  0  0  0  0  0
    3.1913   -0.0103    1.1834 H   0  0  0  0  0  0  0  0  0  0  0  0
   -0.5521    0.0445    3.3569 H   0  0  0  0  0  0  0  0  0  0  0  0
   -1.7921    0.0293    1.2276 H   0  0  0  0  0  0  0  0  0  0  0  0
    1.6231   -0.0026    4.4801 H   0  0  0  0  0  0  0  0  0  0  0  0
    3.0911   -0.0095    3.6243 H   0  0  0  0  0  0  0  0  0  0  0  0
   -1.6386   -2.2477   -2.1257 H   0  0  0  0  0  0  0  0  0  0  0  0
    1.6735   -0.7160   -3.3156 H   0  0  0  0  0  0  0  0  0  0  0  0
    3.4331   -2.7729   -3.6246 H   0  0  0  0  0  0  0  0  0  0  0  0
    0.4571   -6.0665   -3.4139 H   0  0  0  0  0  0  0  0  0  0  0  0
   -1.1260   -7.8633   -2.7315 H   0  0  0  0  0  0  0  0  0  0  0  0
   -2.6366   -7.5195   -0.7903 H   0  0  0  0  0  0  0  0  0  0  0  0
   -2.5503   -5.3986    0.4950 H   0  0  0  0  0  0  0  0  0  0  0  0
   -0.9642   -3.6056   -0.1579 H   0  0  0  0  0  0  0  0  0  0  0  0
  1  6  1  0  0  0  0
  2  1  2  0  0  0  0
  2  3  1  0  0  0  0
  3  4  2  0  0  0  0
  4  5  1  0  0  0  0
  4  7  1  0  0  0  0
  5 25  1  0  0  0  0
  6 26  1  0  0  0  0
  6  5  2  0  0  0  0
  7 28  1  0  0  0  0
  7 27  1  0  0  0  0
  8  9  2  0  0  0  0
  8  1  1  0  0  0  0
 10  8  2  0  0  0  0
 11  8  1  0  0  0  0
 12 16  1  0  0  0  0
 12 11  1  0  0  0  0
 13 12  2  0  0  0  0
 14 13  1  0  0  0  0
 14 15  2  0  0  0  0
 15 16  1  0  0  0  0
 16 17  1  0  0  0  0
 17 22  2  0  0  0  0
 18 19  2  0  0  0  0
 18 17  1  0  0  0  0
 19 20  1  0  0  0  0
 20 34  1  0  0  0  0
 20 21  2  0  0  0  0
 21 35  1  0  0  0  0
 22 21  1  0  0  0  0
 22 36  1  0  0  0  0
 23  2  1  0  0  0  0
 24  3  1  0  0  0  0
 29 11  1  0  0  0  0
 30 13  1  0  0  0  0
 31 14  1  0  0  0  0
 32 18  1  0  0  0  0
 33 19  1  0  0  0  0
M  END
$$$$
