rmsd217.gzmat
 OpenBabel08211713393D

 36 38  0  0  0  0  0  0  0  0999 V2000
    0.0000    0.0000    0.0000 C   0  0  0  0  0  0  0  0  0  0  0  0
    1.4003    0.0000    0.0000 C   0  0  0  0  0  0  0  0  0  0  0  0
    2.1062    0.0000    1.1902 C   0  0  0  0  0  0  0  0  0  0  0  0
    1.4031    0.0030    2.4173 C   0  0  0  0  0  0  0  0  0  0  0  0
   -0.0105    0.0143    2.4195 C   0  0  0  0  0  0  0  0  0  0  0  0
   -0.6939    0.0131    1.2152 C   0  0  0  0  0  0  0  0  0  0  0  0
    2.0966   -0.0063    3.6046 N   0  0  0  0  0  0  0  0  0  0  0  0
   -0.8605   -0.0196   -1.4975 S   0  0  0  0  0  0  0  0  0  0  0  0
   -2.1267    0.6636   -1.3935 O   0  0  0  0  0  0  0  0  0  0  0  0
    0.0439    0.2631   -2.5880 O   0  0  0  0  0  0  0  0  0  0  0  0
   -1.3401   -1.7092   -1.7071 N   0  0  0  0  0  0  0  0  0  0  0  0
   -0.3632   -2.6964   -1.7422 C   0  0  0  0  0  0  0  0  0  0  0  0
    0.4453   -3.1925   -0.7121 C   0  0  0  0  0  0  0  0  0  0  0  0
    1.2154   -4.2381   -1.3008 C   0  0  0  0  0  0  0  0  0  0  0  0
    0.8956   -4.3911   -2.6054 N   0  0  0  0  0  0  0  0  0  0  0  0
   -0.0330   -3.4362   -2.8934 N   0  0  0  0  0  0  0  0  0  0  0  0
   -0.6135   -3.3685   -4.1905 C   0  0  0  0  0  0  0  0  0  0  0  0
   -0.6868   -2.1274   -4.8342 C   0  0  0  0  0  0  0  0  0  0  0  0
   -1.2856   -2.0553   -6.0876 C   0  0  0  0  0  0  0  0  0  0  0  0
   -1.7822   -3.2060   -6.6990 C   0  0  0  0  0  0  0  0  0  0  0  0
   -1.6748   -4.4415   -6.0622 C   0  0  0  0  0  0  0  0  0  0  0  0
   -1.0898   -4.5326   -4.8026 C   0  0  0  0  0  0  0  0  0  0  0  0
    1.9585    0.0007   -0.9480 H   0  0  0  0  0  0  0  0  0  0  0  0
    3.1906   -0.0059    1.1846 H   0  0  0  0  0  0  0  0  0  0  0  0
   -0.5532    0.0232    3.3576 H   0  0  0  0  0  0  0  0  0  0  0  0
   -1.7917    0.0245    1.2305 H   0  0  0  0  0  0  0  0  0  0  0  0
    1.6279    0.0026    4.4821 H   0  0  0  0  0  0  0  0  0  0  0  0
    3.0918   -0.0149    3.6209 H   0  0  0  0  0  0  0  0  0  0  0  0
   -2.1636   -1.8845   -2.2849 H   0  0  0  0  0  0  0  0  0  0  0  0
    0.4667   -2.8761    0.3047 H   0  0  0  0  0  0  0  0  0  0  0  0
    1.9558   -4.8563   -0.8277 H   0  0  0  0  0  0  0  0  0  0  0  0
   -0.2576   -1.2298   -4.3731 H   0  0  0  0  0  0  0  0  0  0  0  0
   -1.3564   -1.0927   -6.5946 H   0  0  0  0  0  0  0  0  0  0  0  0
   -2.2475   -3.1402   -7.6807 H   0  0  0  0  0  0  0  0  0  0  0  0
   -2.0463   -5.3420   -6.5498 H   0  0  0  0  0  0  0  0  0  0  0  0
   -0.9891   -5.4948   -4.2992 H   0  0  0  0  0  0  0  0  0  0  0  0
  1  2  2  0  0  0  0
  1  6  1  0  0  0  0
  2  3  1  0  0  0  0
  3  4  2  0  0  0  0
  4  5  1  0  0  0  0
  4  7  1  0  0  0  0
  5 25  1  0  0  0  0
  6 26  1  0  0  0  0
  6  5  2  0  0  0  0
  7 28  1  0  0  0  0
  7 27  1  0  0  0  0
  8  9  2  0  0  0  0
  8  1  1  0  0  0  0
 10  8  2  0  0  0  0
 11  8  1  0  0  0  0
 12 11  1  0  0  0  0
 12 13  2  0  0  0  0
 13 30  1  0  0  0  0
 14 31  1  0  0  0  0
 14 13  1  0  0  0  0
 15 14  2  0  0  0  0
 16 15  1  0  0  0  0
 16 12  1  0  0  0  0
 17 16  1  0  0  0  0
 18 32  1  0  0  0  0
 18 17  2  0  0  0  0
 19 18  1  0  0  0  0
 20 19  2  0  0  0  0
 20 21  1  0  0  0  0
 21 22  2  0  0  0  0
 22 36  1  0  0  0  0
 22 17  1  0  0  0  0
 23  2  1  0  0  0  0
 24  3  1  0  0  0  0
 29 11  1  0  0  0  0
 33 19  1  0  0  0  0
 34 20  1  0  0  0  0
 35 21  1  0  0  0  0
M  END
$$$$
