rmsd201.gzmat
 OpenBabel08211713393D

 36 38  0  0  0  0  0  0  0  0999 V2000
    0.0000    0.0000    0.0000 C   0  0  0  0  0  0  0  0  0  0  0  0
    1.4003    0.0000    0.0000 C   0  0  0  0  0  0  0  0  0  0  0  0
    2.1065    0.0000    1.1904 C   0  0  0  0  0  0  0  0  0  0  0  0
    1.4031    0.0043    2.4166 C   0  0  0  0  0  0  0  0  0  0  0  0
   -0.0109    0.0152    2.4191 C   0  0  0  0  0  0  0  0  0  0  0  0
   -0.6942    0.0158    1.2152 C   0  0  0  0  0  0  0  0  0  0  0  0
    2.0918    0.0008    3.6066 N   0  0  0  0  0  0  0  0  0  0  0  0
   -0.8681   -0.0253   -1.4932 S   0  0  0  0  0  0  0  0  0  0  0  0
   -2.1523    0.6199   -1.3678 O   0  0  0  0  0  0  0  0  0  0  0  0
    0.0163    0.2975   -2.5884 O   0  0  0  0  0  0  0  0  0  0  0  0
   -1.2977   -1.7261   -1.7265 N   0  0  0  0  0  0  0  0  0  0  0  0
   -0.3029   -2.6952   -1.7209 C   0  0  0  0  0  0  0  0  0  0  0  0
    0.4759   -3.1675   -0.6571 C   0  0  0  0  0  0  0  0  0  0  0  0
    1.2870   -4.2034   -1.2064 C   0  0  0  0  0  0  0  0  0  0  0  0
    1.0180   -4.3744   -2.5201 N   0  0  0  0  0  0  0  0  0  0  0  0
    0.0832   -3.4393   -2.8527 N   0  0  0  0  0  0  0  0  0  0  0  0
   -0.4554   -3.4050   -4.1689 C   0  0  0  0  0  0  0  0  0  0  0  0
   -0.5637   -2.1726   -4.8239 C   0  0  0  0  0  0  0  0  0  0  0  0
   -1.1234   -2.1351   -6.0969 C   0  0  0  0  0  0  0  0  0  0  0  0
   -1.5497   -3.3100   -6.7154 C   0  0  0  0  0  0  0  0  0  0  0  0
   -1.4062   -4.5358   -6.0669 C   0  0  0  0  0  0  0  0  0  0  0  0
   -0.8560   -4.5935   -4.7898 C   0  0  0  0  0  0  0  0  0  0  0  0
    1.9590   -0.0002   -0.9474 H   0  0  0  0  0  0  0  0  0  0  0  0
    3.1912   -0.0073    1.1853 H   0  0  0  0  0  0  0  0  0  0  0  0
   -0.5516    0.0229    3.3584 H   0  0  0  0  0  0  0  0  0  0  0  0
   -1.7925    0.0306    1.2288 H   0  0  0  0  0  0  0  0  0  0  0  0
    1.6157   -0.0019    4.4805 H   0  0  0  0  0  0  0  0  0  0  0  0
    3.0868   -0.0123    3.6299 H   0  0  0  0  0  0  0  0  0  0  0  0
   -2.0965   -1.9183   -2.3321 H   0  0  0  0  0  0  0  0  0  0  0  0
    0.4511   -2.8425    0.3568 H   0  0  0  0  0  0  0  0  0  0  0  0
    2.0212   -4.8028   -0.7005 H   0  0  0  0  0  0  0  0  0  0  0  0
   -0.1912   -1.2535   -4.3568 H   0  0  0  0  0  0  0  0  0  0  0  0
   -1.2197   -1.1795   -6.6123 H   0  0  0  0  0  0  0  0  0  0  0  0
   -1.9887   -3.2702   -7.7107 H   0  0  0  0  0  0  0  0  0  0  0  0
   -1.7240   -5.4545   -6.5588 H   0  0  0  0  0  0  0  0  0  0  0  0
   -0.7238   -5.5476   -4.2779 H   0  0  0  0  0  0  0  0  0  0  0  0
  1  2  2  0  0  0  0
  1  6  1  0  0  0  0
  2  3  1  0  0  0  0
  3  4  2  0  0  0  0
  4  5  1  0  0  0  0
  4  7  1  0  0  0  0
  5 25  1  0  0  0  0
  6 26  1  0  0  0  0
  6  5  2  0  0  0  0
  7 28  1  0  0  0  0
  7 27  1  0  0  0  0
  8  9  2  0  0  0  0
  8  1  1  0  0  0  0
 10  8  2  0  0  0  0
 11 12  1  0  0  0  0
 11  8  1  0  0  0  0
 12 13  2  0  0  0  0
 13 30  1  0  0  0  0
 14 31  1  0  0  0  0
 14 13  1  0  0  0  0
 15 14  2  0  0  0  0
 16 15  1  0  0  0  0
 16 12  1  0  0  0  0
 17 16  1  0  0  0  0
 18 32  1  0  0  0  0
 18 17  2  0  0  0  0
 19 18  1  0  0  0  0
 20 19  2  0  0  0  0
 20 21  1  0  0  0  0
 21 22  2  0  0  0  0
 22 36  1  0  0  0  0
 22 17  1  0  0  0  0
 23  2  1  0  0  0  0
 24  3  1  0  0  0  0
 29 11  1  0  0  0  0
 33 19  1  0  0  0  0
 34 20  1  0  0  0  0
 35 21  1  0  0  0  0
M  END
$$$$
