36
rmsd197.gzmat
C          0.00000        0.00000        0.00000
C          1.39930        0.00000        0.00000
C          2.10520        0.00000        1.19080
C          1.40130        0.00240        2.41700
C         -0.01270       -0.00130        2.41920
C         -0.69560       -0.00630        1.21530
N          2.09190        0.00570        3.60600
S         -0.86420        0.00730       -1.49510
O         -0.06540       -0.54030       -2.56470
O         -2.22430       -0.43070       -1.28820
N         -0.98280        1.71830       -1.92760
C         -1.63910        2.59470       -1.07330
C         -1.25680        3.06810        0.18800
C         -2.27660        3.98560        0.57690
N         -3.22050        4.08710       -0.38540
N         -2.86550        3.21810       -1.37370
C         -3.62800        3.14550       -2.57250
C         -3.97530        1.88800       -3.08070
C         -4.68500        1.81910       -4.27540
C         -5.06170        2.98530       -4.94090
C         -4.74020        4.23250       -4.40710
C         -4.02180        4.32250       -3.21860
H          1.95580       -0.00310       -0.94740
H          3.18910        0.00030        1.18660
H         -0.55690        0.00030        3.35720
H         -1.79510       -0.01420        1.22890
H          1.61790        0.01390        4.48080
H          3.08680        0.00760        3.62770
H         -1.04890        1.93800       -2.92200
H         -0.37530        2.82100        0.73250
H         -2.34090        4.55170        1.48750
H         -3.71690        0.97270       -2.53570
H         -4.95300        0.84560       -4.68670
H         -5.61480        2.92130       -5.87650
H         -5.05080        5.14290       -4.91790
H         -3.77490        5.29200       -2.78420
