rmsd196.gzmat
 OpenBabel08211713393D

 36 38  0  0  0  0  0  0  0  0999 V2000
    0.0000    0.0000    0.0000 C   0  0  0  0  0  0  0  0  0  0  0  0
    1.3992    0.0000    0.0000 C   0  0  0  0  0  0  0  0  0  0  0  0
    2.1053    0.0000    1.1907 C   0  0  0  0  0  0  0  0  0  0  0  0
    1.4013    0.0054    2.4166 C   0  0  0  0  0  0  0  0  0  0  0  0
   -0.0126   -0.0064    2.4189 C   0  0  0  0  0  0  0  0  0  0  0  0
   -0.6954   -0.0137    1.2151 C   0  0  0  0  0  0  0  0  0  0  0  0
    2.0918    0.0310    3.6054 N   0  0  0  0  0  0  0  0  0  0  0  0
   -0.8653    0.0248   -1.4943 S   0  0  0  0  0  0  0  0  0  0  0  0
   -0.0493   -0.4637   -2.5796 O   0  0  0  0  0  0  0  0  0  0  0  0
   -2.2106   -0.4625   -1.3040 O   0  0  0  0  0  0  0  0  0  0  0  0
   -1.0433    1.7450   -1.8695 N   0  0  0  0  0  0  0  0  0  0  0  0
   -1.6999    2.5774   -0.9726 C   0  0  0  0  0  0  0  0  0  0  0  0
   -1.2977    3.0225    0.2928 C   0  0  0  0  0  0  0  0  0  0  0  0
   -2.3296    3.9015    0.7355 C   0  0  0  0  0  0  0  0  0  0  0  0
   -3.3000    4.0074   -0.1989 N   0  0  0  0  0  0  0  0  0  0  0  0
   -2.9492    3.1778   -1.2225 N   0  0  0  0  0  0  0  0  0  0  0  0
   -3.7388    3.1340   -2.4049 C   0  0  0  0  0  0  0  0  0  0  0  0
   -4.0606    1.8907   -2.9622 C   0  0  0  0  0  0  0  0  0  0  0  0
   -4.8034    1.8538   -4.1382 C   0  0  0  0  0  0  0  0  0  0  0  0
   -5.2364    3.0364   -4.7369 C   0  0  0  0  0  0  0  0  0  0  0  0
   -4.9363    4.2676   -4.1555 C   0  0  0  0  0  0  0  0  0  0  0  0
   -4.1871    4.3262   -2.9845 C   0  0  0  0  0  0  0  0  0  0  0  0
    1.9558   -0.0003   -0.9476 H   0  0  0  0  0  0  0  0  0  0  0  0
    3.1890    0.0008    1.1861 H   0  0  0  0  0  0  0  0  0  0  0  0
   -0.5556   -0.0091    3.3576 H   0  0  0  0  0  0  0  0  0  0  0  0
   -1.7947   -0.0293    1.2282 H   0  0  0  0  0  0  0  0  0  0  0  0
    1.6172    0.0149    4.4803 H   0  0  0  0  0  0  0  0  0  0  0  0
    3.0859    0.0031    3.6272 H   0  0  0  0  0  0  0  0  0  0  0  0
   -1.1410    1.9931   -2.8544 H   0  0  0  0  0  0  0  0  0  0  0  0
   -0.3966    2.7833    0.8080 H   0  0  0  0  0  0  0  0  0  0  0  0
   -2.3836    4.4386    1.6643 H   0  0  0  0  0  0  0  0  0  0  0  0
   -3.7592    0.9597   -2.4689 H   0  0  0  0  0  0  0  0  0  0  0  0
   -5.0532    0.8918   -4.5858 H   0  0  0  0  0  0  0  0  0  0  0  0
   -5.8181    2.9984   -5.6564 H   0  0  0  0  0  0  0  0  0  0  0  0
   -5.2882    5.1899   -4.6158 H   0  0  0  0  0  0  0  0  0  0  0  0
   -3.9587    5.2825   -2.5121 H   0  0  0  0  0  0  0  0  0  0  0  0
  1  2  2  0  0  0  0
  1  6  1  0  0  0  0
  2  3  1  0  0  0  0
  3  4  2  0  0  0  0
  4  5  1  0  0  0  0
  4  7  1  0  0  0  0
  5 25  1  0  0  0  0
  6 26  1  0  0  0  0
  6  5  2  0  0  0  0
  7 28  1  0  0  0  0
  7 27  1  0  0  0  0
  8 10  2  0  0  0  0
  8  1  1  0  0  0  0
  9  8  2  0  0  0  0
 11  8  1  0  0  0  0
 11 12  1  0  0  0  0
 12 13  2  0  0  0  0
 13 14  1  0  0  0  0
 13 30  1  0  0  0  0
 14 31  1  0  0  0  0
 15 14  2  0  0  0  0
 16 12  1  0  0  0  0
 16 15  1  0  0  0  0
 17 16  1  0  0  0  0
 18 32  1  0  0  0  0
 18 17  1  0  0  0  0
 19 18  2  0  0  0  0
 20 21  2  0  0  0  0
 20 19  1  0  0  0  0
 21 22  1  0  0  0  0
 22 36  1  0  0  0  0
 22 17  2  0  0  0  0
 23  2  1  0  0  0  0
 24  3  1  0  0  0  0
 29 11  1  0  0  0  0
 33 19  1  0  0  0  0
 34 20  1  0  0  0  0
 35 21  1  0  0  0  0
M  END
$$$$
