49
rmsd21.gzmat
S          0.00000        0.00000        0.00000
O          1.48800        0.00000        0.00000
C         -0.50680        0.00000       -1.77090
C          0.18540        1.04900       -2.62920
C          1.64920        0.70150       -2.89220
H          2.17940        0.44090       -1.92020
C          2.37170        1.85020       -3.56490
O          2.48460        2.98390       -3.19910
N          3.02940        1.34830       -4.74430
N          2.53300        0.03350       -5.01810
C          1.80840       -0.44260       -3.87080
O          1.36440       -1.55390       -3.81860
C          3.44570       -0.84090       -5.69390
C          2.90120       -2.02020       -6.22330
C          3.72270       -2.88040       -6.94430
C          5.06890       -2.57430       -7.13960
C          5.60170       -1.40300       -6.60450
C          4.79770       -0.53100       -5.87640
C          3.14700        2.20600       -5.88830
C          3.86090        3.39820       -5.69630
C          4.06260        4.24750       -6.77880
C          3.56820        3.91610       -8.03990
C          2.85820        2.73080       -8.21990
C          2.63790        1.87160       -7.14720
C         -0.47960        1.68500        0.39900
C          0.50010        2.65440        0.58730
C          0.13010        3.95080        0.94460
C         -1.21610        4.27040        1.10770
C         -2.19300        3.29300        0.91950
C         -1.82560        1.99600        0.56490
H         -0.30070       -1.01710       -2.17100
H         -1.60200        0.12390       -1.81490
H          0.12430        2.05990       -2.16330
H         -0.35640        1.15350       -3.59530
H          1.84970       -2.26200       -6.06640
H          3.30800       -3.79820       -7.35830
H          5.70270       -3.25030       -7.70860
H          6.65460       -1.16630       -6.75200
H          5.21960        0.38310       -5.45750
H          4.24650        3.65770       -4.70900
H          4.61180        5.17720       -6.63770
H          3.73550        4.58360       -8.88180
H          2.46980        2.47250       -9.20400
H          2.07780        0.94840       -7.29350
H          1.56270        2.41190        0.45850
H          0.89490        4.71190        1.09360
H         -1.50650        5.28350        1.38150
H         -3.24350        3.54350        1.04890
H         -2.60470        1.24740        0.42390
