rmsd20.gzmat
 OpenBabel08211713383D

 49 52  0  0  0  0  0  0  0  0999 V2000
    0.0000    0.0000    0.0000 S   0  0  2  0  0  0  0  0  0  0  0  0
    1.4842    0.0000    0.0000 O   0  0  0  0  0  0  0  0  0  0  0  0
   -0.4976    0.0000   -1.7797 C   0  0  0  0  0  0  0  0  0  0  0  0
   -0.8654   -1.3960   -2.2574 C   0  0  0  0  0  0  0  0  0  0  0  0
   -2.1435   -1.9391   -1.6114 C   0  0  0  0  0  0  0  0  0  0  0  0
   -2.0180   -2.0384   -0.5016 H   0  0  0  0  0  0  0  0  0  0  0  0
   -2.4967   -3.2938   -2.2072 C   0  0  0  0  0  0  0  0  0  0  0  0
   -1.8469   -4.2982   -2.2209 O   0  0  0  0  0  0  0  0  0  0  0  0
   -3.8463   -3.2426   -2.6976 N   0  0  0  0  0  0  0  0  0  0  0  0
   -4.2816   -1.8798   -2.6997 N   0  0  0  0  0  0  0  0  0  0  0  0
   -3.3717   -1.0984   -1.9155 C   0  0  0  0  0  0  0  0  0  0  0  0
   -3.5911    0.0468   -1.6369 O   0  0  0  0  0  0  0  0  0  0  0  0
   -5.6936   -1.6807   -2.5484 C   0  0  0  0  0  0  0  0  0  0  0  0
   -6.1783   -0.4084   -2.8834 C   0  0  0  0  0  0  0  0  0  0  0  0
   -7.5453   -0.1642   -2.8018 C   0  0  0  0  0  0  0  0  0  0  0  0
   -8.4200   -1.1712   -2.3950 C   0  0  0  0  0  0  0  0  0  0  0  0
   -7.9269   -2.4305   -2.0591 C   0  0  0  0  0  0  0  0  0  0  0  0
   -6.5621   -2.6940   -2.1304 C   0  0  0  0  0  0  0  0  0  0  0  0
   -4.2020   -4.0089   -3.8573 C   0  0  0  0  0  0  0  0  0  0  0  0
   -4.0502   -5.3987   -3.7478 C   0  0  0  0  0  0  0  0  0  0  0  0
   -4.4208   -6.2055   -4.8185 C   0  0  0  0  0  0  0  0  0  0  0  0
   -4.9440   -5.6406   -5.9810 C   0  0  0  0  0  0  0  0  0  0  0  0
   -5.0902   -4.2584   -6.0797 C   0  0  0  0  0  0  0  0  0  0  0  0
   -4.7160   -3.4329   -5.0230 C   0  0  0  0  0  0  0  0  0  0  0  0
   -0.4922    1.6811    0.3893 C   0  0  0  0  0  0  0  0  0  0  0  0
    0.4809    2.6162    0.7260 C   0  0  0  0  0  0  0  0  0  0  0  0
    0.1030    3.9114    1.0792 C   0  0  0  0  0  0  0  0  0  0  0  0
   -1.2456    4.2623    1.0951 C   0  0  0  0  0  0  0  0  0  0  0  0
   -2.2164    3.3196    0.7572 C   0  0  0  0  0  0  0  0  0  0  0  0
   -1.8410    2.0246    0.4035 C   0  0  0  0  0  0  0  0  0  0  0  0
   -1.3321    0.7084   -1.9415 H   0  0  0  0  0  0  0  0  0  0  0  0
    0.3432    0.3968   -2.3821 H   0  0  0  0  0  0  0  0  0  0  0  0
   -0.0318   -2.1147   -2.0759 H   0  0  0  0  0  0  0  0  0  0  0  0
   -0.9830   -1.3795   -3.3644 H   0  0  0  0  0  0  0  0  0  0  0  0
   -5.4908    0.3784   -3.1967 H   0  0  0  0  0  0  0  0  0  0  0  0
   -7.9317    0.8215   -3.0597 H   0  0  0  0  0  0  0  0  0  0  0  0
   -9.4887   -0.9735   -2.3394 H   0  0  0  0  0  0  0  0  0  0  0  0
   -8.6098   -3.2159   -1.7369 H   0  0  0  0  0  0  0  0  0  0  0  0
   -6.1792   -3.6795   -1.8664 H   0  0  0  0  0  0  0  0  0  0  0  0
   -3.6399   -5.8391   -2.8384 H   0  0  0  0  0  0  0  0  0  0  0  0
   -4.3002   -7.2858   -4.7441 H   0  0  0  0  0  0  0  0  0  0  0  0
   -5.2363   -6.2799   -6.8117 H   0  0  0  0  0  0  0  0  0  0  0  0
   -5.4979   -3.8168   -6.9883 H   0  0  0  0  0  0  0  0  0  0  0  0
   -4.8272   -2.3521   -5.1070 H   0  0  0  0  0  0  0  0  0  0  0  0
    1.5440    2.3473    0.7118 H   0  0  0  0  0  0  0  0  0  0  0  0
    0.8620    4.6466    1.3394 H   0  0  0  0  0  0  0  0  0  0  0  0
   -1.5417    5.2738    1.3679 H   0  0  0  0  0  0  0  0  0  0  0  0
   -3.2692    3.5945    0.7636 H   0  0  0  0  0  0  0  0  0  0  0  0
   -2.6198    1.3059    0.1322 H   0  0  0  0  0  0  0  0  0  0  0  0
  1  2  2  6  0  0  0
  1 25  1  0  0  0  0
  3  1  1  0  0  0  0
  4 33  1  0  0  0  0
  4  3  1  0  0  0  0
  4  5  1  0  0  0  0
  5  6  1  0  0  0  0
  7  5  1  0  0  0  0
  8  7  2  0  0  0  0
  9  7  1  0  0  0  0
 10  9  1  0  0  0  0
 10 13  1  0  0  0  0
 10 11  1  0  0  0  0
 11 12  2  0  0  0  0
 11  5  1  0  0  0  0
 13 18  2  0  0  0  0
 14 15  2  0  0  0  0
 14 13  1  0  0  0  0
 15 16  1  0  0  0  0
 16 37  1  0  0  0  0
 16 17  2  0  0  0  0
 17 38  1  0  0  0  0
 18 17  1  0  0  0  0
 18 39  1  0  0  0  0
 19 20  1  0  0  0  0
 19  9  1  0  0  0  0
 20 40  1  0  0  0  0
 21 41  1  0  0  0  0
 21 20  2  0  0  0  0
 22 21  1  0  0  0  0
 23 22  2  0  0  0  0
 23 24  1  0  0  0  0
 24 19  2  0  0  0  0
 25 30  2  0  0  0  0
 25 26  1  0  0  0  0
 26 27  2  0  0  0  0
 27 28  1  0  0  0  0
 27 46  1  0  0  0  0
 28 47  1  0  0  0  0
 29 48  1  0  0  0  0
 29 28  2  0  0  0  0
 30 29  1  0  0  0  0
 31  3  1  0  0  0  0
 32  3  1  0  0  0  0
 34  4  1  0  0  0  0
 35 14  1  0  0  0  0
 36 15  1  0  0  0  0
 42 22  1  0  0  0  0
 43 23  1  0  0  0  0
 44 24  1  0  0  0  0
 45 26  1  0  0  0  0
 49 30  1  0  0  0  0
M  END
$$$$
