49
rmsd25.gzmat
S          0.00000        0.00000        0.00000
O          1.48840        0.00000        0.00000
C         -0.50430        0.00000       -1.77260
C          0.20490        1.02940       -2.64120
C          1.67080        0.67340       -2.87440
H          2.18440        0.43040       -1.88710
C          2.41790        1.80320       -3.55280
O          2.51160        2.94870       -3.21860
N          3.13040        1.26370       -4.67980
N          2.64090       -0.05560       -4.94510
C          1.85130       -0.49300       -3.82100
O          1.38790       -1.59600       -3.76840
C          3.60410       -0.96270       -5.50100
C          3.09280       -2.14550       -6.05420
C          3.96960       -3.04820       -6.64660
C          5.33690       -2.77820       -6.69400
C          5.83440       -1.59950       -6.14170
C          4.97440       -0.68570       -5.53990
C          3.34120        2.08330       -5.83720
C          4.05880        3.27140       -5.63250
C          4.34650        4.08530       -6.72290
C          3.93350        3.72220       -8.00460
C          3.22210        2.53980       -8.19780
C          2.91670        1.71600       -7.11820
C         -0.47860        1.68510        0.39900
C         -1.81110        1.96950        0.68030
C         -2.17800        3.26960        1.02570
C         -1.21330        4.27470        1.09240
C          0.11980        3.98200        0.81220
C          0.48920        2.68200        0.46760
H         -0.31410       -1.02300       -2.16510
H         -1.59710        0.14300       -1.81760
H          0.13860        2.04950       -2.19710
H         -0.32240        1.11510       -3.61720
H          2.02400       -2.35680       -6.01260
H          3.58250       -3.97220       -7.07320
H          6.01470       -3.48900       -7.16060
H          6.90250       -1.39020       -6.17680
H          5.36670        0.23470       -5.10720
H          4.38050        3.55550       -4.62930
H          4.89830        5.01200       -6.57070
H          4.16420        4.36150       -8.85350
H          2.89860        2.25620       -9.19830
H          2.35520        0.79550       -7.27560
H         -2.57900        1.19760        0.64210
H         -3.21820        3.50030        1.24390
H         -1.50400        5.28790        1.36610
H          0.87420        4.76650        0.85790
H          1.54280        2.45690        0.25730
