49
rmsd59.gzmat
S          0.00000        0.00000        0.00000
O          1.48870        0.00000        0.00000
C         -0.49990        0.00000       -1.77380
C          0.13280        1.09500       -2.62060
C          1.62380        0.85880       -2.84500
H          2.14500        0.62080       -1.86100
C          2.28730        2.06500       -3.47600
O          2.28820        3.20230       -3.10330
N          3.05040        1.62110       -4.61140
N          2.67970        0.27270       -4.91920
C          1.90470       -0.25880       -3.82660
O          1.51890       -1.39230       -3.81880
C          3.72260       -0.52810       -5.49240
C          3.33570       -1.76290       -6.03320
C          4.29310       -2.56080       -6.65110
C          5.61800       -2.13580       -6.73960
C          5.99240       -0.90680       -6.19970
C          5.05190       -0.09880       -5.56800
C          3.18390        2.49010       -5.74470
C          3.81720        3.71910       -5.50850
C          4.03260        4.58510       -6.57490
C          3.62780        4.23500       -7.86250
C          2.99730        3.01280       -8.08660
C          2.76670        2.13470       -7.03150
C         -0.47260        1.68570        0.40440
C          0.50790        2.66450        0.53090
C          0.14540        3.96640        0.87570
C         -1.19420        4.27980        1.09580
C         -2.17140        3.29180        0.97580
C         -1.81150        1.98950        0.62930
H         -0.23310       -0.99770       -2.18750
H         -1.60020        0.06250       -1.82030
H         -0.01790        2.10050       -2.16370
H         -0.39200        1.15290       -3.60010
H          2.29980       -2.09570       -5.96330
H          4.00180       -3.52360       -7.06850
H          6.35970       -2.76490       -7.22580
H          7.02770       -0.57460       -6.26650
H          5.35240        0.85720       -5.13860
H          4.12960        3.99260       -4.49980
H          4.52200        5.54230       -6.40040
H          3.80360        4.91660       -8.69120
H          2.68040        2.74050       -9.09230
H          2.27030        1.18110       -7.21050
H          1.56560        2.42630        0.36190
H          0.91060        4.73640        0.96740
H         -1.47870        5.29690        1.36180
H         -3.21610        3.53700        1.15280
H         -2.59000        1.23230        0.54210
