49
rmsd20.gzmat
S          0.00000        0.00000        0.00000
O          1.48420        0.00000        0.00000
C         -0.49760        0.00000       -1.77970
C         -0.86540       -1.39600       -2.25740
C         -2.14350       -1.93910       -1.61140
H         -2.01800       -2.03840       -0.50160
C         -2.49670       -3.29380       -2.20720
O         -1.84690       -4.29820       -2.22090
N         -3.84630       -3.24260       -2.69760
N         -4.28160       -1.87980       -2.69970
C         -3.37170       -1.09840       -1.91550
O         -3.59110        0.04680       -1.63690
C         -5.69360       -1.68070       -2.54840
C         -6.17830       -0.40840       -2.88340
C         -7.54530       -0.16420       -2.80180
C         -8.42000       -1.17120       -2.39500
C         -7.92690       -2.43050       -2.05910
C         -6.56210       -2.69400       -2.13040
C         -4.20200       -4.00890       -3.85730
C         -4.05020       -5.39870       -3.74780
C         -4.42080       -6.20550       -4.81850
C         -4.94400       -5.64060       -5.98100
C         -5.09020       -4.25840       -6.07970
C         -4.71600       -3.43290       -5.02300
C         -0.49220        1.68110        0.38930
C          0.48090        2.61620        0.72600
C          0.10300        3.91140        1.07920
C         -1.24560        4.26230        1.09510
C         -2.21640        3.31960        0.75720
C         -1.84100        2.02460        0.40350
H         -1.33210        0.70840       -1.94150
H          0.34320        0.39680       -2.38210
H         -0.03180       -2.11470       -2.07590
H         -0.98300       -1.37950       -3.36440
H         -5.49080        0.37840       -3.19670
H         -7.93170        0.82150       -3.05970
H         -9.48870       -0.97350       -2.33940
H         -8.60980       -3.21590       -1.73690
H         -6.17920       -3.67950       -1.86640
H         -3.63990       -5.83910       -2.83840
H         -4.30020       -7.28580       -4.74410
H         -5.23630       -6.27990       -6.81170
H         -5.49790       -3.81680       -6.98830
H         -4.82720       -2.35210       -5.10700
H          1.54400        2.34730        0.71180
H          0.86200        4.64660        1.33940
H         -1.54170        5.27380        1.36790
H         -3.26920        3.59450        0.76360
H         -2.61980        1.30590        0.13220
