49
rmsd22.gzmat
S          0.00000        0.00000        0.00000
O          1.48820        0.00000        0.00000
C         -0.49990        0.00000       -1.77490
C          0.23230        1.01410       -2.64270
C          1.68650        0.61830       -2.88450
H          2.19030        0.33490       -1.90240
C          2.47170        1.74070       -3.53090
O          2.59740        2.87470       -3.16890
N          3.17580        1.20610       -4.66540
N          2.64630       -0.08980       -4.96700
C          1.83160       -0.52760       -3.86160
O          1.32580       -1.61300       -3.84220
C          3.58310       -1.01170       -5.54270
C          3.04070       -2.17020       -6.11690
C          3.89230       -3.08250       -6.73120
C          5.26530       -2.84410       -6.78200
C          5.79410       -1.68920       -6.20860
C          4.96020       -0.76970       -5.57960
C          3.42250        2.04630       -5.80090
C          4.18530        3.19940       -5.56330
C          4.51450        4.02570       -6.63230
C          4.09670        3.71020       -7.92480
C          3.33550        2.56500       -8.14990
C          2.98930        1.72900       -7.09210
C         -0.48590        1.68540        0.38970
C         -1.81040        1.95170        0.72160
C         -2.19040        3.25500        1.03900
C         -1.24620        4.28130        1.02820
C          0.08230        4.00390        0.71210
C          0.46410        2.70140        0.39270
H         -0.32750       -1.02660       -2.16560
H         -1.58960        0.16310       -1.82490
H          0.19730        2.03350       -2.19300
H         -0.29710        1.11900       -3.61570
H          1.96730       -2.35630       -6.07330
H          3.48080       -3.98910       -7.17230
H          5.92460       -3.56090       -7.26570
H          6.86680       -1.50440       -6.24650
H          5.37840        0.12790       -5.12320
H          4.50970        3.44720       -4.55170
H          5.10300        4.92500       -6.45460
H          4.36340        4.35850       -8.75610
H          3.00570        2.31950       -9.15840
H          2.39030        0.83690       -7.27370
H         -2.56240        1.16320        0.74290
H         -3.22450        3.47200        1.29650
H         -1.54740        5.29960        1.27010
H          0.82360        4.80210        0.71370
H          1.51350        2.49020        0.15090
