49
rmsd178.gzmat
S          0.00000        0.00000        0.00000
O          1.48840        0.00000        0.00000
C         -0.50490        0.00000       -1.77130
C          0.13480        1.09080       -2.61820
C          1.62000        0.83250       -2.86000
H          2.15130        0.59880       -1.88140
C          2.28370        2.02440       -3.51770
O          2.31570        3.16260       -3.14950
N          2.99850        1.56630       -4.68220
N          2.59890        0.22010       -4.96160
C          1.86610       -0.29780       -3.83590
O          1.48290       -1.43180       -3.80010
C          3.60060       -0.60030       -5.57820
C          3.15270       -1.80450       -6.13990
C          4.06510       -2.62660       -6.79260
C          5.40520       -2.25440       -6.89400
C          5.83940       -1.05360       -6.33590
C          4.94420       -0.22120       -5.67010
C          3.06500        2.42760       -5.82850
C          3.68870        3.66880       -5.63370
C          3.83320        4.53070       -6.71550
C          3.36860        4.16430       -7.97840
C          2.74850        2.93010       -8.16170
C          2.58930        2.05570       -7.09050
C         -0.47090        1.68560        0.40810
C          0.51850        2.63140        0.65710
C          0.15930        3.92960        1.01890
C         -1.18640        4.27370        1.12790
C         -2.17330        3.32010        0.87930
C         -1.81650        2.02130        0.52060
H         -0.24690       -1.00020       -2.18490
H         -1.60480        0.06980       -1.81490
H          0.00540        2.09520       -2.15250
H         -0.39890        1.16340       -3.59200
H          2.10500       -2.09450       -6.05830
H          3.72710       -3.56640       -7.22640
H          6.11140       -2.90310       -7.40670
H          6.88590       -0.76290       -6.41700
H          5.28840        0.71410       -5.22800
H          4.04840        3.95530       -4.64420
H          4.31360        5.49770       -6.57290
H          3.49000        4.84270       -8.81930
H          2.38310        2.64530       -9.14750
H          2.10190        1.09250       -7.23900
H          1.58090        2.36970        0.56920
H          0.93200        4.67310        1.21080
H         -1.46910        5.28770        1.40660
H         -3.22310        3.59100        0.96500
H         -2.60330        1.29120        0.33490
