49
rmsd60.gzmat
S          0.00000        0.00000        0.00000
O          1.48830        0.00000        0.00000
C         -0.50040        0.00000       -1.77320
C          0.18160        1.06050       -2.62580
C          1.65050        0.73300       -2.88120
H          2.17400        0.46080       -1.90790
C          2.37250        1.89900       -3.52470
O          2.45640        3.03160       -3.14730
N          3.07290        1.41570       -4.68630
N          2.59340        0.10170       -4.99220
C          1.83610       -0.39440       -3.87410
O          1.39330       -1.50710       -3.85570
C          3.53940       -0.76060       -5.63840
C          3.01180       -1.90170       -6.25940
C          3.86710       -2.74560       -6.95970
C          5.22890       -2.45830       -7.04620
C          5.74480       -1.32770       -6.41560
C          4.90740       -0.47500       -5.70260
C          3.22640        2.28600       -5.81650
C          3.93780        3.47350       -5.59000
C          4.17450        4.33380       -6.65670
C          3.71440        4.01900       -7.93490
C          3.00520        2.83890       -8.14900
C          2.75230        1.96790       -7.09310
C         -0.48080        1.68570        0.39510
C          0.49320        2.67120        0.51770
C          0.12170        3.97280        0.85450
C         -1.22030        4.27880        1.07060
C         -2.19070        3.28380        0.95490
C         -1.82170        1.98270        0.61680
H         -0.27810       -1.01220       -2.17690
H         -1.59680        0.11080       -1.82140
H          0.10430        2.06970       -2.15830
H         -0.35760        1.15950       -3.59380
H          1.94760       -2.12570       -6.18530
H          3.46750       -3.63610       -7.44260
H          5.88850       -3.11910       -7.60370
H          6.80990       -1.10810       -6.47630
H          5.31340        0.40520       -5.20380
H          4.29370        3.72040       -4.58870
H          4.72420        5.25940       -6.49070
H          3.90780        4.69570       -8.76380
H          2.64280        2.59340       -9.14630
H          2.19300        1.04850       -7.26500
H          1.55250        2.43700        0.35270
H          0.88130        4.74840        0.94210
H         -1.51310        5.29500        1.33000
H         -3.23760        3.52310        1.12690
H         -2.59580        1.22040        0.53340
