49
rmsd152.gzmat
S          0.00000        0.00000        0.00000
O          1.48830        0.00000        0.00000
C         -0.50370        0.00000       -1.77280
C          0.17550        1.05990       -2.62850
C          1.64620        0.73680       -2.88350
H          2.17410        0.47970       -1.90910
C          2.35410        1.90020       -3.54700
O          2.44870        3.03360       -3.17510
N          3.02420        1.41560       -4.72640
N          2.56050        0.08970       -5.00430
C          1.83050       -0.40100       -3.86530
O          1.40230       -1.51880       -3.82330
C          3.51400       -0.76590       -5.64910
C          3.00950       -1.94980       -6.20620
C          3.87540       -2.79790       -6.88850
C          5.22490       -2.47260       -7.02190
C          5.71640       -1.29530       -6.46170
C          4.86780       -0.43630       -5.76980
C          3.11330        2.27560       -5.87190
C          3.82930        3.46850       -5.69550
C          4.00210        4.32000       -6.78140
C          3.47330        3.99050       -8.02900
C          2.76060        2.80430       -8.19290
C          2.57160        1.94180       -7.11710
C         -0.47900        1.68720        0.39140
C         -1.82160        1.99310        0.59040
C         -2.18810        3.29910        0.91260
C         -1.21360        4.28910        1.03690
C          0.13010        3.97290        0.84680
C          0.49930        2.66710        0.52500
H         -0.28290       -1.01260       -2.17630
H         -1.60030        0.11090       -1.81740
H          0.09490        2.06990       -2.16360
H         -0.36350        1.15460       -3.59750
H          1.95480       -2.20410       -6.09860
H          3.49370       -3.72170       -7.32060
H          5.89420       -3.13920       -7.56030
H          6.77130       -1.04420       -6.56080
H          5.25690        0.48240       -5.32990
H          4.23820        3.72610       -4.71750
H          4.55560        5.24930       -6.65350
H          3.61590        4.65990       -8.87390
H          2.34650        2.54790       -9.16690
H          2.01050        1.01690       -7.24860
H         -2.59850        1.23460        0.49960
H         -3.23580        3.54730        1.06660
H         -1.50340        5.30950        1.28340
H          0.89300        4.74440        0.94270
H          1.55970        2.42670        0.37720
