rmsd173.gzmat
 OpenBabel08211713413D

 61 64  0  0  1  0  0  0  0  0999 V2000
    0.0000    0.0000    0.0000 O   0  0  0  0  0  0  0  0  0  0  0  0
    1.1984    0.0000    0.0000 C   0  0  0  0  0  0  0  0  0  0  0  0
    1.8238    0.0000    1.2097 O   0  0  0  0  0  0  0  0  0  0  0  0
    2.1058   -0.0302   -1.2174 C   0  0  2  0  0  0  0  0  0  0  0  0
    3.0035   -0.6579   -0.9973 H   0  0  0  0  0  0  0  0  0  0  0  0
    2.5425    1.4167   -1.5478 C   0  0  1  0  0  0  0  0  0  0  0  0
    1.5977    2.0069   -1.7193 H   0  0  0  0  0  0  0  0  0  0  0  0
    3.3076    2.0227   -0.3972 C   0  0  0  0  0  0  0  0  0  0  0  0
    4.5602    1.5286   -0.0262 C   0  0  0  0  0  0  0  0  0  0  0  0
    5.2465    2.0954    1.0445 C   0  0  0  0  0  0  0  0  0  0  0  0
    4.6875    3.1610    1.7477 C   0  0  0  0  0  0  0  0  0  0  0  0
    3.4419    3.6615    1.3741 C   0  0  0  0  0  0  0  0  0  0  0  0
    2.7525    3.0947    0.3043 C   0  0  0  0  0  0  0  0  0  0  0  0
    3.3868    1.5102   -2.7942 C   0  0  0  0  0  0  0  0  0  0  0  0
    3.2331    2.6295   -3.6169 C   0  0  0  0  0  0  0  0  0  0  0  0
    4.0007    2.7657   -4.7704 C   0  0  0  0  0  0  0  0  0  0  0  0
    4.9283    1.7813   -5.1066 C   0  0  0  0  0  0  0  0  0  0  0  0
    5.7398    1.8923   -6.3714 C   0  0  0  0  0  0  0  0  0  0  0  0
    5.3669    0.8451   -7.3125 N   0  0  0  0  0  0  0  0  0  0  0  0
    5.9737   -0.4067   -7.3865 C   0  0  0  0  0  0  0  0  0  0  0  0
    7.0745   -0.8469   -6.7361 N   0  0  0  0  0  0  0  0  0  0  0  0
    7.4349   -2.1085   -7.0282 C   0  0  0  0  0  0  0  0  0  0  0  0
    6.7381   -2.9354   -7.9464 C   0  0  0  0  0  0  0  0  0  0  0  0
    5.6049   -2.4827   -8.6103 C   0  0  0  0  0  0  0  0  0  0  0  0
    5.1930   -1.1736   -8.3225 C   0  0  0  0  0  0  0  0  0  0  0  0
    4.1208   -0.3926   -8.7606 N   0  0  0  0  0  0  0  0  0  0  0  0
    4.2194    0.7873   -8.1430 C   0  0  0  0  0  0  0  0  0  0  0  0
    3.2746    1.9223   -8.2952 C   0  0  0  0  0  0  0  0  0  0  0  0
    3.8108    2.9379   -9.3039 C   0  0  0  0  0  0  0  0  0  0  0  0
    4.8528   -3.3299   -9.5673 C   0  0  0  0  0  0  0  0  0  0  0  0
    8.6417   -2.6293   -6.3183 C   0  0  0  0  0  0  0  0  0  0  0  0
    5.0996    0.6722   -4.2779 C   0  0  0  0  0  0  0  0  0  0  0  0
    4.3276    0.5340   -3.1293 C   0  0  0  0  0  0  0  0  0  0  0  0
    1.3292   -0.6484   -2.3783 C   0  0  0  0  0  0  0  0  0  0  0  0
    2.7882    0.1920    1.1881 H   0  0  0  0  0  0  0  0  0  0  0  0
    5.0171    0.7147   -0.5872 H   0  0  0  0  0  0  0  0  0  0  0  0
    6.2236    1.7083    1.3287 H   0  0  0  0  0  0  0  0  0  0  0  0
    5.2239    3.6031    2.5848 H   0  0  0  0  0  0  0  0  0  0  0  0
    3.0042    4.4960    1.9200 H   0  0  0  0  0  0  0  0  0  0  0  0
    1.7766    3.4896    0.0239 H   0  0  0  0  0  0  0  0  0  0  0  0
    2.5128    3.4033   -3.3575 H   0  0  0  0  0  0  0  0  0  0  0  0
    3.8736    3.6437   -5.4010 H   0  0  0  0  0  0  0  0  0  0  0  0
    6.8341    1.7898   -6.1367 H   0  0  0  0  0  0  0  0  0  0  0  0
    5.6140    2.8861   -6.8624 H   0  0  0  0  0  0  0  0  0  0  0  0
    7.1061   -3.9411   -8.1256 H   0  0  0  0  0  0  0  0  0  0  0  0
    3.0763    2.4034   -7.3139 H   0  0  0  0  0  0  0  0  0  0  0  0
    2.2875    1.5300   -8.6392 H   0  0  0  0  0  0  0  0  0  0  0  0
    4.7881    3.3350   -9.0083 H   0  0  0  0  0  0  0  0  0  0  0  0
    3.1243    3.7838   -9.4179 H   0  0  0  0  0  0  0  0  0  0  0  0
    3.9350    2.4787  -10.2952 H   0  0  0  0  0  0  0  0  0  0  0  0
    5.5165   -3.8853  -10.2437 H   0  0  0  0  0  0  0  0  0  0  0  0
    4.1683   -2.7285  -10.1925 H   0  0  0  0  0  0  0  0  0  0  0  0
    4.2263   -4.0639   -9.0361 H   0  0  0  0  0  0  0  0  0  0  0  0
    8.4223   -3.5688   -5.7919 H   0  0  0  0  0  0  0  0  0  0  0  0
    9.0186   -1.9120   -5.5701 H   0  0  0  0  0  0  0  0  0  0  0  0
    9.4630   -2.8213   -7.0245 H   0  0  0  0  0  0  0  0  0  0  0  0
    5.8378   -0.0911   -4.5384 H   0  0  0  0  0  0  0  0  0  0  0  0
    4.4640   -0.3445   -2.5013 H   0  0  0  0  0  0  0  0  0  0  0  0
    1.9211   -0.6583   -3.3029 H   0  0  0  0  0  0  0  0  0  0  0  0
    0.4035   -0.0932   -2.5869 H   0  0  0  0  0  0  0  0  0  0  0  0
    1.0347   -1.6826   -2.1603 H   0  0  0  0  0  0  0  0  0  0  0  0
  1  2  2  0  0  0  0
  2  3  1  0  0  0  0
  4  5  1  1  0  0  0
  4  2  1  0  0  0  0
  6  7  1  6  0  0  0
  6  4  1  0  0  0  0
  6  8  1  0  0  0  0
  8  9  2  0  0  0  0
  8 13  1  0  0  0  0
  9 10  1  0  0  0  0
 10 37  1  0  0  0  0
 10 11  2  0  0  0  0
 11 38  1  0  0  0  0
 12 11  1  0  0  0  0
 12 39  1  0  0  0  0
 13 12  2  0  0  0  0
 14  6  1  0  0  0  0
 15 41  1  0  0  0  0
 15 14  2  0  0  0  0
 16 15  1  0  0  0  0
 17 16  2  0  0  0  0
 17 32  1  0  0  0  0
 18 43  1  0  0  0  0
 18 17  1  0  0  0  0
 19 18  1  0  0  0  0
 20 19  1  0  0  0  0
 20 21  2  0  0  0  0
 22 21  2  0  0  0  0
 22 31  1  0  0  0  0
 23 22  1  0  0  0  0
 24 25  1  0  0  0  0
 24 23  2  0  0  0  0
 25 20  1  0  0  0  0
 26 25  2  0  0  0  0
 26 27  2  0  0  0  0
 27 19  1  0  0  0  0
 28 27  1  0  0  0  0
 28 46  1  0  0  0  0
 29 48  1  0  0  0  0
 29 28  1  0  0  0  0
 30 53  1  0  0  0  0
 30 24  1  0  0  0  0
 31 54  1  0  0  0  0
 31 55  1  0  0  0  0
 32 33  2  0  0  0  0
 33 14  1  0  0  0  0
 33 58  1  0  0  0  0
 34 61  1  0  0  0  0
 34  4  1  0  0  0  0
 35  3  1  0  0  0  0
 36  9  1  0  0  0  0
 40 13  1  0  0  0  0
 42 16  1  0  0  0  0
 44 18  1  0  0  0  0
 45 23  1  0  0  0  0
 47 28  1  0  0  0  0
 49 29  1  0  0  0  0
 50 29  1  0  0  0  0
 51 30  1  0  0  0  0
 52 30  1  0  0  0  0
 56 31  1  0  0  0  0
 57 32  1  0  0  0  0
 59 34  1  0  0  0  0
 60 34  1  0  0  0  0
M  END
$$$$
