61
rmsd200.gzmat
O          0.00000        0.00000        0.00000
C          1.19870        0.00000        0.00000
O          1.82350        0.00000        1.20950
C          2.10490       -0.03830       -1.21830
H          2.97460       -0.70830       -1.00840
C          2.60770        1.39260       -1.52330
H          1.69370        2.02900       -1.69290
C          3.39230        1.94250       -0.35650
C          4.66760        1.45870       -0.05600
C          5.37520        1.97560        1.02610
C          4.81070        2.97520        1.81670
C          3.54060        3.46340        1.51580
C          2.83280        2.95070        0.43080
C          3.46960        1.47000       -2.75890
C          3.42070        2.63610       -3.52780
C          4.24840        2.78180       -4.63750
C          5.12800        1.75820       -4.98710
C          6.05780        1.92090       -6.16110
N          7.45020        1.82010       -5.74670
C          8.20840        0.65260       -5.81290
N          7.86670       -0.54260       -6.34540
C          8.82270       -1.48500       -6.27520
C         10.10050       -1.27030       -5.69740
C         10.44990       -0.04140       -5.15140
C          9.47250        0.96270       -5.19780
N          9.43990        2.28300       -4.74410
C          8.23400        2.77180       -5.04690
C          7.75320        4.13340       -4.69890
C          7.15890        4.12810       -3.28860
C         11.78360        0.21220       -4.55370
C          8.47650       -2.82070       -6.84780
C          5.15620        0.57920       -4.24250
C          4.33490        0.43820       -3.12870
C          1.30260       -0.59890       -2.39110
H          2.79140        0.17490        1.18780
H          5.12570        0.69120       -0.67940
H          6.37320        1.60100        1.25060
H          5.36130        3.37480        2.66590
H          3.09790        4.24640        2.12950
H          1.83850        3.33650        0.20730
H          2.74280        3.44270       -3.25500
H          4.20890        3.69870       -5.22300
H          5.90240        2.89510       -6.68230
H          5.85270        1.11850       -6.92220
H         10.81230       -2.09010       -5.68710
H          7.01100        4.50330       -5.43420
H          8.61010        4.84680       -4.74200
H          6.30570        3.44170       -3.21020
H          6.81320        5.12510       -2.99680
H          7.90160        3.80310       -2.54690
H         12.05280       -0.54840       -3.80750
H         11.82530        1.19500       -4.05020
H         12.57060        0.21650       -5.32370
H          9.11790       -3.05920       -7.70880
H          7.43220       -2.85770       -7.20130
H          8.60000       -3.61960       -6.10360
H          5.82980       -0.23110       -4.53240
H          4.37780       -0.48500       -2.55300
H          1.89340       -0.61920       -3.31540
H          0.40260        0.00140       -2.58900
H          0.95990       -1.62210       -2.19170
