61

O          0.11840        0.03100        0.37290
C          1.31760        0.02230        0.29740
O          2.06970        0.07610        1.41600
C          2.07810       -0.05660       -1.03470
H          2.96030       -0.69860       -0.86550
C          2.58090        1.35960       -1.44980
H          1.67720        1.97400       -1.58490
C          3.40620        2.01940       -0.35160
C          4.68580        1.54340       -0.01950
C          5.40800        2.11150        1.03340
C          4.86700        3.17350        1.76440
C          3.60080        3.66150        1.43420
C          2.87730        3.08570        0.38710
C          3.33570        1.37730       -2.77130
C          4.20200        0.35090       -3.16720
C          4.91650        0.43870       -4.36530
C          4.78570        1.55390       -5.19840
C          5.53430        1.64890       -6.51020
N          4.65350        1.67940       -7.66870
C          4.20390        2.83800       -8.27870
N          4.52970        4.08450       -7.97110
C          3.94550        5.02520       -8.73130
C          3.04710        4.70600       -9.77570
C          2.69830        3.38380      -10.08450
C          3.31170        2.40540       -9.28750
N          3.21500        1.02680       -9.27370
C          4.00730        0.62580       -8.30330
C          4.25670       -0.80420       -7.94430
C          5.54550       -1.36520       -8.56450
C          1.74120        3.01370      -11.17810
C          4.28400        6.45670       -8.40670
C          3.92310        2.58790       -4.80420
C          3.21070        2.49500       -3.61110
C          1.17920       -0.68150       -2.10020
H          3.00400        0.21850        1.19550
H          5.13100        0.73260       -0.60010
H          6.40180        1.72840        1.27760
H          5.43190        3.61910        2.58630
H          3.16830        4.49010        1.99980
H          1.87800        3.45810        0.14800
H          4.31790       -0.54140       -2.54900
H          5.58460       -0.37760       -4.65380
H          6.23850        0.81200       -6.61250
H          6.11150        2.58460       -6.54860
H          2.60730        5.52130      -10.35480
H          3.39070       -1.37320       -8.31100
H          4.27880       -0.91570       -6.84820
H          5.51150       -1.28050       -9.66120
H          5.67470       -2.42720       -8.30420
H          6.43880       -0.82250       -8.21630
H          1.34510        3.90140      -11.69120
H          0.89810        2.43160      -10.77240
H          2.23430        2.36560      -11.92060
H          3.85840        7.15570       -9.14010
H          5.37620        6.59370       -8.37640
H          3.90080        6.72600       -7.40830
H          3.81900        3.46830       -5.44280
H          2.54480        3.31050       -3.31660
H          1.69960       -0.75870       -3.06390
H          0.27500       -0.07060       -2.23310
H          0.85290       -1.68590       -1.79400
