61
rmsd120.gzmat
O          0.00000        0.00000        0.00000
C          1.19830        0.00000        0.00000
O          1.82130        0.00000        1.21020
C          2.10440       -0.03770       -1.21860
H          2.97020       -0.71230       -1.01270
C          2.61090        1.39370       -1.51840
H          1.69430        2.03680       -1.65490
C          3.42560        1.92660       -0.36590
C          4.65130        1.35270       -0.02210
C          5.37910        1.84890        1.05660
C          4.88670        2.92120        1.79810
C          3.66690        3.50010        1.45370
C          2.93790        3.00610        0.37430
C          3.42940        1.47450       -2.78320
C          4.33230        0.47480       -3.14840
C          5.06670        0.58730       -4.32670
C          4.89740        1.69920       -5.14900
C          5.64730        1.80440       -6.45220
N          4.72690        1.76240       -7.58030
C          4.23000        2.88370       -8.24140
N          4.60020        4.17620       -8.09760
C          3.95620        5.03900       -8.90260
C          2.95860        4.65380       -9.83510
C          2.57550        3.32600       -9.97690
C          3.22750        2.39710       -9.15370
N          3.11530        1.01270       -9.00340
C          3.99030        0.65050       -8.06180
C          4.20960       -0.73730       -7.58220
C          5.42860       -1.35350       -8.26920
C          1.53780        2.89710      -10.94610
C          4.33950        6.47670       -8.77000
C          4.01530        2.71430       -4.77610
C          3.28220        2.60060       -3.59990
C          1.29940       -0.58960       -2.39350
H          2.78920        0.17230        1.19130
H          5.05450        0.52860       -0.60740
H          6.33620        1.40020        1.31770
H          5.45380        3.30600        2.64350
H          3.27980        4.33880        2.03090
H          1.98240        3.46230        0.11680
H          4.46680       -0.40400       -2.52150
H          5.77060       -0.19720       -4.59800
H          6.39840        0.98690       -6.56590
H          6.22080        2.77020       -6.49170
H          2.49120        5.42090      -10.44490
H          3.30100       -1.34700       -7.80400
H          4.32160       -0.76030       -6.47740
H          5.29880       -1.36630       -9.36110
H          5.58530       -2.38850       -7.94640
H          6.34560       -0.79260       -8.05920
H          0.62520        3.50460      -10.86990
H          1.24480        1.84270      -10.79040
H          1.90430        2.97390      -11.98170
H          4.71400        6.87820       -9.72240
H          5.13510        6.62290       -8.02010
H          3.48080        7.08850       -8.45870
H          3.89770        3.59360       -5.41500
H          2.59280        3.39570       -3.31800
H          1.89530       -0.62380       -3.31410
H          0.41210        0.02670       -2.60020
H          0.93700       -1.60530       -2.19180
