
     RDKit          3D

 61 64  0  0  0  0  0  0  0  0999 V2000
    0.3913   -0.6053    0.2653 O   0  0  0  0  0  0  0  0  0  0  0  0
    1.5713   -0.3801    0.2396 C   0  0  0  0  0  0  0  0  0  0  0  0
    2.2489   -0.1707    1.3871 O   0  0  0  0  0  0  0  0  0  0  0  0
    2.3897   -0.3194   -1.0586 C   0  0  2  0  0  0  0  0  0  0  0  0
    3.3675   -0.7865   -0.8469 H   0  0  0  0  0  0  0  0  0  0  0  0
    2.6389    1.1653   -1.4660 C   0  0  1  0  0  0  0  0  0  0  0  0
    1.6428    1.6036   -1.6331 H   0  0  0  0  0  0  0  0  0  0  0  0
    3.2945    1.9684   -0.3492 C   0  0  0  0  0  0  0  0  0  0  0  0
    4.6232    1.7261    0.0386 C   0  0  0  0  0  0  0  0  0  0  0  0
    5.1943    2.4241    1.1062 C   0  0  0  0  0  0  0  0  0  0  0  0
    4.4493    3.3846    1.7969 C   0  0  0  0  0  0  0  0  0  0  0  0
    3.1315    3.6408    1.4118 C   0  0  0  0  0  0  0  0  0  0  0  0
    2.5604    2.9353    0.3499 C   0  0  0  0  0  0  0  0  0  0  0  0
    3.4136    1.3119   -2.7672 C   0  0  0  0  0  0  0  0  0  0  0  0
    3.0735    2.3463   -3.6525 C   0  0  0  0  0  0  0  0  0  0  0  0
    3.7679    2.5334   -4.8455 C   0  0  0  0  0  0  0  0  0  0  0  0
    4.8276    1.6839   -5.1924 C   0  0  0  0  0  0  0  0  0  0  0  0
    5.5193    1.8423   -6.5277 C   0  0  0  0  0  0  0  0  0  0  0  0
    4.5866    1.8105   -7.6423 N   0  0  0  0  0  0  0  0  0  0  0  0
    4.2671    2.9086   -8.4239 C   0  0  0  0  0  0  0  0  0  0  0  0
    4.7647    4.1314   -8.3268 N   0  0  0  0  0  0  0  0  0  0  0  0
    4.2760    5.0120   -9.2150 C   0  0  0  0  0  0  0  0  0  0  0  0
    3.3031    4.6563  -10.1782 C   0  0  0  0  0  0  0  0  0  0  0  0
    2.7792    3.3592  -10.2693 C   0  0  0  0  0  0  0  0  0  0  0  0
    3.2915    2.4443   -9.3367 C   0  0  0  0  0  0  0  0  0  0  0  0
    3.0241    1.1091   -9.1037 N   0  0  0  0  0  0  0  0  0  0  0  0
    3.7953    0.7618   -8.0957 C   0  0  0  0  0  0  0  0  0  0  0  0
    3.7795   -0.5889   -7.4505 C   0  0  0  0  0  0  0  0  0  0  0  0
    2.6025   -0.7620   -6.4772 C   0  0  0  0  0  0  0  0  0  0  0  0
    1.7435    2.9528  -11.2750 C   0  0  0  0  0  0  0  0  0  0  0  0
    4.8193    6.4149   -9.1388 C   0  0  0  0  0  0  0  0  0  0  0  0
    5.1818    0.6623   -4.3074 C   0  0  0  0  0  0  0  0  0  0  0  0
    4.4850    0.4780   -3.1109 C   0  0  0  0  0  0  0  0  0  0  0  0
    1.6693   -1.1019   -2.1555 C   0  0  0  0  0  0  0  0  0  0  0  0
    3.1477    0.1460    1.2034 H   0  0  0  0  0  0  0  0  0  0  0  0
    5.2251    0.9974   -0.5083 H   0  0  0  0  0  0  0  0  0  0  0  0
    6.2289    2.2224    1.3937 H   0  0  0  0  0  0  0  0  0  0  0  0
    4.8958    3.9315    2.6303 H   0  0  0  0  0  0  0  0  0  0  0  0
    2.5400    4.3883    1.9456 H   0  0  0  0  0  0  0  0  0  0  0  0
    1.5220    3.1258    0.0674 H   0  0  0  0  0  0  0  0  0  0  0  0
    2.2442    3.0125   -3.4009 H   0  0  0  0  0  0  0  0  0  0  0  0
    3.4768    3.3361   -5.5275 H   0  0  0  0  0  0  0  0  0  0  0  0
    6.2868    1.0641   -6.6574 H   0  0  0  0  0  0  0  0  0  0  0  0
    6.0180    2.8213   -6.5962 H   0  0  0  0  0  0  0  0  0  0  0  0
    2.9483    5.4230  -10.8709 H   0  0  0  0  0  0  0  0  0  0  0  0
    4.7319   -0.7734   -6.9305 H   0  0  0  0  0  0  0  0  0  0  0  0
    3.6992   -1.3329   -8.2577 H   0  0  0  0  0  0  0  0  0  0  0  0
    2.6612   -0.0452   -5.6455 H   0  0  0  0  0  0  0  0  0  0  0  0
    2.5938   -1.7786   -6.0542 H   0  0  0  0  0  0  0  0  0  0  0  0
    1.6517   -0.5969   -7.0053 H   0  0  0  0  0  0  0  0  0  0  0  0
    1.4507    3.7925  -11.9209 H   0  0  0  0  0  0  0  0  0  0  0  0
    0.8453    2.5638  -10.7689 H   0  0  0  0  0  0  0  0  0  0  0  0
    2.1200    2.1330  -11.9078 H   0  0  0  0  0  0  0  0  0  0  0  0
    4.3442    7.0801   -9.8732 H   0  0  0  0  0  0  0  0  0  0  0  0
    5.9069    6.4152   -9.3177 H   0  0  0  0  0  0  0  0  0  0  0  0
    4.6628    6.8322   -8.1311 H   0  0  0  0  0  0  0  0  0  0  0  0
    5.9982   -0.0177   -4.5653 H   0  0  0  0  0  0  0  0  0  0  0  0
    4.7703   -0.3491   -2.4579 H   0  0  0  0  0  0  0  0  0  0  0  0
    2.2402   -1.0913   -3.0932 H   0  0  0  0  0  0  0  0  0  0  0  0
    0.6777   -0.6645   -2.3396 H   0  0  0  0  0  0  0  0  0  0  0  0
    1.5135   -2.1464   -1.8494 H   0  0  0  0  0  0  0  0  0  0  0  0
  1  2  2  0
  2  3  1  0
  2  4  1  0
  3 35  1  0
  4  5  1  1
  4  6  1  0
  4 34  1  0
  6  7  1  6
  6  8  1  0
  6 14  1  0
  8  9  2  0
  8 13  1  0
  9 10  1  0
  9 36  1  0
 10 11  2  0
 10 37  1  0
 11 12  1  0
 11 38  1  0
 12 13  2  0
 12 39  1  0
 13 40  1  0
 14 15  2  0
 14 33  1  0
 15 16  1  0
 15 41  1  0
 16 17  2  0
 16 42  1  0
 17 18  1  0
 17 32  1  0
 18 19  1  0
 18 43  1  0
 18 44  1  0
 19 20  1  0
 19 27  1  0
 20 21  2  0
 20 25  1  0
 21 22  1  0
 22 23  2  0
 22 31  1  0
 23 24  1  0
 23 45  1  0
 24 25  2  0
 24 30  1  0
 25 26  1  0
 26 27  2  0
 27 28  1  0
 28 29  1  0
 28 46  1  0
 28 47  1  0
 29 48  1  0
 29 49  1  0
 29 50  1  0
 30 51  1  0
 30 52  1  0
 30 53  1  0
 31 54  1  0
 31 55  1  0
 31 56  1  0
 32 33  2  0
 32 57  1  0
 33 58  1  0
 34 59  1  0
 34 60  1  0
 34 61  1  0
M  END

