rmsd143.gzmat
 OpenBabel08211713413D

 61 64  0  0  1  0  0  0  0  0999 V2000
    0.0000    0.0000    0.0000 O   0  0  0  0  0  0  0  0  0  0  0  0
    1.1984    0.0000    0.0000 C   0  0  0  0  0  0  0  0  0  0  0  0
    1.8242    0.0000    1.2093 O   0  0  0  0  0  0  0  0  0  0  0  0
    2.1037   -0.0336   -1.2189 C   0  0  2  0  0  0  0  0  0  0  0  0
    2.9870   -0.6835   -1.0083 H   0  0  0  0  0  0  0  0  0  0  0  0
    2.5706    1.4075   -1.5335 C   0  0  1  0  0  0  0  0  0  0  0  0
    1.6370    2.0236   -1.6776 H   0  0  0  0  0  0  0  0  0  0  0  0
    3.3741    1.9807   -0.3924 C   0  0  0  0  0  0  0  0  0  0  0  0
    4.5957    1.4187   -0.0148 C   0  0  0  0  0  0  0  0  0  0  0  0
    5.3190    1.9607    1.0443 C   0  0  0  0  0  0  0  0  0  0  0  0
    4.8277    3.0688    1.7317 C   0  0  0  0  0  0  0  0  0  0  0  0
    3.6126    3.6359    1.3533 C   0  0  0  0  0  0  0  0  0  0  0  0
    2.8862    3.0936    0.2953 C   0  0  0  0  0  0  0  0  0  0  0  0
    3.3897    1.4920   -2.7971 C   0  0  0  0  0  0  0  0  0  0  0  0
    3.1867    2.5801   -3.6516 C   0  0  0  0  0  0  0  0  0  0  0  0
    3.9261    2.6976   -4.8233 C   0  0  0  0  0  0  0  0  0  0  0  0
    4.8709    1.7246   -5.1520 C   0  0  0  0  0  0  0  0  0  0  0  0
    5.6311    1.8315   -6.4477 C   0  0  0  0  0  0  0  0  0  0  0  0
    4.7297    1.7466   -7.5883 N   0  0  0  0  0  0  0  0  0  0  0  0
    4.2350    2.8472   -8.2854 C   0  0  0  0  0  0  0  0  0  0  0  0
    4.5588    4.1514   -8.1349 N   0  0  0  0  0  0  0  0  0  0  0  0
    3.9287    4.9885   -8.9769 C   0  0  0  0  0  0  0  0  0  0  0  0
    2.9929    4.5658   -9.9563 C   0  0  0  0  0  0  0  0  0  0  0  0
    2.6640    3.2252  -10.1111 C   0  0  0  0  0  0  0  0  0  0  0  0
    3.2974    2.3234   -9.2438 C   0  0  0  0  0  0  0  0  0  0  0  0
    3.2194    0.9382   -9.0863 N   0  0  0  0  0  0  0  0  0  0  0  0
    4.0486    0.6102   -8.0914 C   0  0  0  0  0  0  0  0  0  0  0  0
    4.2489   -0.7649   -7.5671 C   0  0  0  0  0  0  0  0  0  0  0  0
    3.1635   -1.0933   -6.5394 C   0  0  0  0  0  0  0  0  0  0  0  0
    1.7095    2.7532  -11.1434 C   0  0  0  0  0  0  0  0  0  0  0  0
    4.2621    6.4379   -8.8393 C   0  0  0  0  0  0  0  0  0  0  0  0
    5.0938    0.6508   -4.2926 C   0  0  0  0  0  0  0  0  0  0  0  0
    4.3505    0.5329   -3.1209 C   0  0  0  0  0  0  0  0  0  0  0  0
    1.3124   -0.6201   -2.3868 C   0  0  0  0  0  0  0  0  0  0  0  0
    2.7907    0.1816    1.1877 H   0  0  0  0  0  0  0  0  0  0  0  0
    5.0011    0.5683   -0.5595 H   0  0  0  0  0  0  0  0  0  0  0  0
    6.2722    1.5208    1.3319 H   0  0  0  0  0  0  0  0  0  0  0  0
    5.3938    3.4924    2.5588 H   0  0  0  0  0  0  0  0  0  0  0  0
    3.2280    4.5048    1.8853 H   0  0  0  0  0  0  0  0  0  0  0  0
    1.9341    3.5415    0.0124 H   0  0  0  0  0  0  0  0  0  0  0  0
    2.4489    3.3428   -3.4044 H   0  0  0  0  0  0  0  0  0  0  0  0
    3.7648    3.5461   -5.4939 H   0  0  0  0  0  0  0  0  0  0  0  0
    6.4109    1.0390   -6.5392 H   0  0  0  0  0  0  0  0  0  0  0  0
    6.1740    2.8156   -6.4921 H   0  0  0  0  0  0  0  0  0  0  0  0
    2.5324    5.3145  -10.5936 H   0  0  0  0  0  0  0  0  0  0  0  0
    5.2572   -0.8878   -7.1232 H   0  0  0  0  0  0  0  0  0  0  0  0
    4.1956   -1.4903   -8.4135 H   0  0  0  0  0  0  0  0  0  0  0  0
    3.2141   -0.4260   -5.6694 H   0  0  0  0  0  0  0  0  0  0  0  0
    3.2542   -2.1236   -6.1813 H   0  0  0  0  0  0  0  0  0  0  0  0
    2.1610   -0.9793   -6.9761 H   0  0  0  0  0  0  0  0  0  0  0  0
    0.8072    3.3773  -11.1958 H   0  0  0  0  0  0  0  0  0  0  0  0
    1.3839    1.7145  -10.9526 H   0  0  0  0  0  0  0  0  0  0  0  0
    2.1765    2.7571  -12.1414 H   0  0  0  0  0  0  0  0  0  0  0  0
    4.6285    6.8539   -9.7884 H   0  0  0  0  0  0  0  0  0  0  0  0
    5.0466    6.6091   -8.0828 H   0  0  0  0  0  0  0  0  0  0  0  0
    3.3810    7.0199   -8.5328 H   0  0  0  0  0  0  0  0  0  0  0  0
    5.8425   -0.1016   -4.5330 H   0  0  0  0  0  0  0  0  0  0  0  0
    4.5244   -0.3185   -2.4671 H   0  0  0  0  0  0  0  0  0  0  0  0
    1.9091   -0.6473   -3.3071 H   0  0  0  0  0  0  0  0  0  0  0  0
    0.4079   -0.0307   -2.5983 H   0  0  0  0  0  0  0  0  0  0  0  0
    0.9788   -1.6435   -2.1734 H   0  0  0  0  0  0  0  0  0  0  0  0
  1  2  2  0  0  0  0
  2  3  1  0  0  0  0
  4  5  1  1  0  0  0
  4  2  1  0  0  0  0
  6  7  1  6  0  0  0
  6  4  1  0  0  0  0
  6  8  1  0  0  0  0
  8  9  2  0  0  0  0
  8 13  1  0  0  0  0
  9 10  1  0  0  0  0
 10 37  1  0  0  0  0
 10 11  2  0  0  0  0
 11 38  1  0  0  0  0
 12 11  1  0  0  0  0
 12 39  1  0  0  0  0
 13 12  2  0  0  0  0
 14  6  1  0  0  0  0
 15 41  1  0  0  0  0
 15 14  2  0  0  0  0
 16 15  1  0  0  0  0
 17 16  2  0  0  0  0
 17 32  1  0  0  0  0
 18 17  1  0  0  0  0
 19 18  1  0  0  0  0
 20 21  2  0  0  0  0
 20 19  1  0  0  0  0
 22 31  1  0  0  0  0
 22 21  2  0  0  0  0
 23 22  1  0  0  0  0
 24 23  2  0  0  0  0
 24 25  1  0  0  0  0
 25 26  2  0  0  0  0
 25 20  1  0  0  0  0
 26 27  2  0  0  0  0
 27 19  1  0  0  0  0
 27 28  1  0  0  0  0
 28 46  1  0  0  0  0
 28 29  1  0  0  0  0
 29 49  1  0  0  0  0
 29 48  1  0  0  0  0
 30 52  1  0  0  0  0
 30 24  1  0  0  0  0
 31 56  1  0  0  0  0
 31 55  1  0  0  0  0
 32 33  2  0  0  0  0
 33 14  1  0  0  0  0
 33 58  1  0  0  0  0
 34 61  1  0  0  0  0
 34  4  1  0  0  0  0
 35  3  1  0  0  0  0
 36  9  1  0  0  0  0
 40 13  1  0  0  0  0
 42 16  1  0  0  0  0
 43 18  1  0  0  0  0
 44 18  1  0  0  0  0
 45 23  1  0  0  0  0
 47 28  1  0  0  0  0
 50 29  1  0  0  0  0
 51 30  1  0  0  0  0
 53 30  1  0  0  0  0
 54 31  1  0  0  0  0
 57 32  1  0  0  0  0
 59 34  1  0  0  0  0
 60 34  1  0  0  0  0
M  END
$$$$
