
     RDKit          3D

 61 64  0  0  0  0  0  0  0  0999 V2000
   -0.1736    0.4557    0.0280 O   0  0  0  0  0  0  0  0  0  0  0  0
    1.0177    0.2980    0.0370 C   0  0  0  0  0  0  0  0  0  0  0  0
    1.6780    0.1697    1.2062 O   0  0  0  0  0  0  0  0  0  0  0  0
    1.8680    0.2268   -1.2397 C   0  0  2  0  0  0  0  0  0  0  0  0
    2.6480   -0.5357   -1.0692 H   0  0  0  0  0  0  0  0  0  0  0  0
    2.5723    1.5964   -1.4867 C   0  0  1  0  0  0  0  0  0  0  0  0
    1.7637    2.3335   -1.6093 H   0  0  0  0  0  0  0  0  0  0  0  0
    3.4005    2.0432   -0.2881 C   0  0  0  0  0  0  0  0  0  0  0  0
    4.5758    1.3666    0.0795 C   0  0  0  0  0  0  0  0  0  0  0  0
    5.2929    1.7468    1.2171 C   0  0  0  0  0  0  0  0  0  0  0  0
    4.8522    2.8173    2.0009 C   0  0  0  0  0  0  0  0  0  0  0  0
    3.6909    3.5031    1.6381 C   0  0  0  0  0  0  0  0  0  0  0  0
    2.9716    3.1155    0.5050 C   0  0  0  0  0  0  0  0  0  0  0  0
    3.3994    1.6265   -2.7632 C   0  0  0  0  0  0  0  0  0  0  0  0
    4.1961    0.5467   -3.1766 C   0  0  0  0  0  0  0  0  0  0  0  0
    4.9632    0.6223   -4.3372 C   0  0  0  0  0  0  0  0  0  0  0  0
    4.9525    1.7804   -5.1265 C   0  0  0  0  0  0  0  0  0  0  0  0
    5.7338    1.8214   -6.4207 C   0  0  0  0  0  0  0  0  0  0  0  0
    5.4357    0.6925   -7.2860 N   0  0  0  0  0  0  0  0  0  0  0  0
    6.3157   -0.3446   -7.5481 C   0  0  0  0  0  0  0  0  0  0  0  0
    7.5579   -0.4703   -7.1083 N   0  0  0  0  0  0  0  0  0  0  0  0
    8.1913   -1.5820   -7.5157 C   0  0  0  0  0  0  0  0  0  0  0  0
    7.5741   -2.5438   -8.3493 C   0  0  0  0  0  0  0  0  0  0  0  0
    6.2560   -2.4033   -8.8056 C   0  0  0  0  0  0  0  0  0  0  0  0
    5.5984   -1.2409   -8.3746 C   0  0  0  0  0  0  0  0  0  0  0  0
    4.3212   -0.7622   -8.5938 N   0  0  0  0  0  0  0  0  0  0  0  0
    4.2490    0.3750   -7.9357 C   0  0  0  0  0  0  0  0  0  0  0  0
    3.0108    1.2097   -7.8308 C   0  0  0  0  0  0  0  0  0  0  0  0
    2.0176    0.6641   -6.7925 C   0  0  0  0  0  0  0  0  0  0  0  0
    5.5725   -3.4070   -9.6857 C   0  0  0  0  0  0  0  0  0  0  0  0
    9.6100   -1.7591   -7.0413 C   0  0  0  0  0  0  0  0  0  0  0  0
    4.1688    2.8618   -4.7151 C   0  0  0  0  0  0  0  0  0  0  0  0
    3.4045    2.7849   -3.5487 C   0  0  0  0  0  0  0  0  0  0  0  0
    0.9898   -0.1875   -2.4191 C   0  0  0  0  0  0  0  0  0  0  0  0
    2.6376    0.2016    1.0647 H   0  0  0  0  0  0  0  0  0  0  0  0
    4.9465    0.5447   -0.5364 H   0  0  0  0  0  0  0  0  0  0  0  0
    6.2049    1.2090    1.4871 H   0  0  0  0  0  0  0  0  0  0  0  0
    5.4131    3.1155    2.8895 H   0  0  0  0  0  0  0  0  0  0  0  0
    3.3364    4.3398    2.2445 H   0  0  0  0  0  0  0  0  0  0  0  0
    2.0522    3.6430    0.2389 H   0  0  0  0  0  0  0  0  0  0  0  0
    4.2066   -0.3798   -2.5992 H   0  0  0  0  0  0  0  0  0  0  0  0
    5.5656   -0.2345   -4.6486 H   0  0  0  0  0  0  0  0  0  0  0  0
    6.8155    1.7586   -6.2254 H   0  0  0  0  0  0  0  0  0  0  0  0
    5.5434    2.7652   -6.9541 H   0  0  0  0  0  0  0  0  0  0  0  0
    8.1471   -3.4265   -8.6427 H   0  0  0  0  0  0  0  0  0  0  0  0
    2.5369    1.2118   -8.8242 H   0  0  0  0  0  0  0  0  0  0  0  0
    3.2732    2.2518   -7.5924 H   0  0  0  0  0  0  0  0  0  0  0  0
    1.7515   -0.3750   -7.0372 H   0  0  0  0  0  0  0  0  0  0  0  0
    1.0963    1.2667   -6.7825 H   0  0  0  0  0  0  0  0  0  0  0  0
    2.4471    0.6809   -5.7804 H   0  0  0  0  0  0  0  0  0  0  0  0
    5.2585   -2.9398  -10.6331 H   0  0  0  0  0  0  0  0  0  0  0  0
    4.6529   -3.7790   -9.2060 H   0  0  0  0  0  0  0  0  0  0  0  0
    6.2251   -4.2619   -9.9125 H   0  0  0  0  0  0  0  0  0  0  0  0
   10.0363   -2.7176   -7.3687 H   0  0  0  0  0  0  0  0  0  0  0  0
    9.6553   -1.7086   -5.9417 H   0  0  0  0  0  0  0  0  0  0  0  0
   10.2469   -0.9445   -7.4235 H   0  0  0  0  0  0  0  0  0  0  0  0
    4.1375    3.7703   -5.3228 H   0  0  0  0  0  0  0  0  0  0  0  0
    2.7904    3.6379   -3.2485 H   0  0  0  0  0  0  0  0  0  0  0  0
    1.5762   -0.2644   -3.3441 H   0  0  0  0  0  0  0  0  0  0  0  0
    0.1875    0.5493   -2.5675 H   0  0  0  0  0  0  0  0  0  0  0  0
    0.5107   -1.1579   -2.2252 H   0  0  0  0  0  0  0  0  0  0  0  0
  1  2  2  0
  2  3  1  0
  2  4  1  0
  3 35  1  0
  4  5  1  1
  4  6  1  0
  4 34  1  0
  6  7  1  6
  6  8  1  0
  6 14  1  0
  8  9  2  0
  8 13  1  0
  9 10  1  0
  9 36  1  0
 10 11  2  0
 10 37  1  0
 11 12  1  0
 11 38  1  0
 12 13  2  0
 12 39  1  0
 13 40  1  0
 14 15  2  0
 14 33  1  0
 15 16  1  0
 15 41  1  0
 16 17  2  0
 16 42  1  0
 17 18  1  0
 17 32  1  0
 18 19  1  0
 18 43  1  0
 18 44  1  0
 19 20  1  0
 19 27  1  0
 20 21  2  0
 20 25  1  0
 21 22  1  0
 22 23  2  0
 22 31  1  0
 23 24  1  0
 23 45  1  0
 24 25  2  0
 24 30  1  0
 25 26  1  0
 26 27  2  0
 27 28  1  0
 28 29  1  0
 28 46  1  0
 28 47  1  0
 29 48  1  0
 29 49  1  0
 29 50  1  0
 30 51  1  0
 30 52  1  0
 30 53  1  0
 31 54  1  0
 31 55  1  0
 31 56  1  0
 32 33  2  0
 32 57  1  0
 33 58  1  0
 34 59  1  0
 34 60  1  0
 34 61  1  0
M  END

