61

O         -0.00110        0.01400        0.08640
C          1.20030        0.03770        0.09460
O          1.87180        0.08490        1.26360
C          2.05340        0.01230       -1.18200
H          2.94630       -0.59880       -0.96250
C          2.52660        1.45350       -1.53430
H          1.61260        2.03520       -1.73140
C          3.24330        2.12790       -0.36900
C          4.53240        1.72460        0.01850
C          5.16650        2.31690        1.11380
C          4.52480        3.32880        1.83440
C          3.24620        3.74120        1.45250
C          2.61160        3.14250        0.36120
C          3.39680        1.53500       -2.77970
C          3.37020        2.70670       -3.54610
C          4.25690        2.89270       -4.60770
C          5.19290        1.90760       -4.93560
C          6.23650        2.13710       -6.00530
N          7.58570        1.93220       -5.50280
C          8.40750        0.88370       -5.88260
N          8.14410       -0.05570       -6.77730
C          9.12160       -0.95950       -6.95200
C         10.33820       -0.90880       -6.23200
C         10.60510        0.08760       -5.28280
C          9.57830        1.02700       -5.10190
N          9.45900        2.12200       -4.26840
C          8.27250        2.63360       -4.51870
C          7.69050        3.80130       -3.78350
C          7.14200        3.41680       -2.40000
C         11.88240        0.16600       -4.50060
C          8.86140       -2.04360       -7.96490
C          5.19490        0.71480       -4.20110
C          4.31100        0.53260       -3.13880
C          1.25530       -0.62310       -2.31910
H          2.81510        0.25340        1.11120
H          5.05670        0.95660       -0.55400
H          6.17060        1.99330        1.39800
H          5.02120        3.79450        2.68860
H          2.73530        4.52940        2.01030
H          1.60380        3.45720        0.07870
H          2.66520        3.50040       -3.28580
H          4.23670        3.82960       -5.17110
H          6.13960        3.14980       -6.42580
H          6.12330        1.41800       -6.83110
H         11.09160       -1.67650       -6.42340
H          6.90050        4.27520       -4.38550
H          8.49670        4.54120       -3.66390
H          6.30700        2.70720       -2.48080
H          6.77810        4.30630       -1.86330
H          7.93540        2.94820       -1.79890
H         12.56520       -0.65810       -4.75100
H         11.67570        0.14050       -3.41870
H         12.39560        1.12200       -4.69380
H          8.71650       -1.60610       -8.96620
H          7.93420       -2.58470       -7.71730
H          9.68820       -2.76560       -8.01580
H          5.91350       -0.06940       -4.45180
H          4.34670       -0.40400       -2.57950
H          1.83880       -0.65040       -3.24880
H          0.33390       -0.04970       -2.49440
H          0.95750       -1.64950       -2.06030
