35
rmsd108.gzmat
Cl         0.00000        0.00000        0.00000
C          1.70710        0.00000        0.00000
C          2.36560        0.00000        1.22350
C          3.76940        0.00270        1.27180
C          4.41830        0.00190        0.06110
O          5.81450        0.00290       -0.11360
C          6.01300       -0.00800       -1.47570
N          7.09420       -0.02270       -2.17000
S          6.63420       -0.04230       -3.88910
C          4.83310       -0.02970       -3.54500
N          3.78720       -0.04340       -4.29710
C          3.90330       -0.08300       -5.71540
O          4.97880       -0.11130       -6.29050
N          2.68560       -0.04080       -6.34750
C          2.63930       -0.28430       -7.79440
C          2.54850       -1.75980       -8.09090
C          1.33210       -2.33330       -8.45760
C          1.26160       -3.70080       -8.71940
C          2.40300       -4.49270       -8.61180
C          3.61870       -3.91750       -8.24240
C          3.69320       -2.55160       -7.98410
N          4.74060       -0.00530       -2.15900
C          3.73060       -0.00240       -1.18810
C          2.35090       -0.00190       -1.24180
H          1.80260       -0.00280        2.15920
H          4.30700        0.00460        2.21860
H          1.83130       -0.15340       -5.82060
H          3.55440        0.15300       -8.27360
H          1.77130        0.27660       -8.21260
H          0.43710       -1.72080       -8.54170
H          0.31370       -4.14900       -9.00870
H          2.34550       -5.56000       -8.81440
H          4.50980       -4.53620       -8.15490
H          4.64410       -2.09740       -7.69230
H          1.81380       -0.00360       -2.19330
