
     RDKit          3D

 35 38  0  0  0  0  0  0  0  0999 V2000
    0.0009    0.3905    0.3356 Cl  0  0  0  0  0  0  0  0  0  0  0  0
    1.7330    0.2224    0.2064 C   0  0  0  0  0  0  0  0  0  0  0  0
    2.4990    0.1421    1.3773 C   0  0  0  0  0  0  0  0  0  0  0  0
    3.8951    0.0065    1.3189 C   0  0  0  0  0  0  0  0  0  0  0  0
    4.4686   -0.0433    0.0617 C   0  0  0  0  0  0  0  0  0  0  0  0
    5.8094   -0.1726   -0.2537 O   0  0  0  0  0  0  0  0  0  0  0  0
    5.8947   -0.1745   -1.6101 C   0  0  0  0  0  0  0  0  0  0  0  0
    6.8977   -0.2693   -2.3824 N   0  0  0  0  0  0  0  0  0  0  0  0
    6.3121   -0.2039   -4.0177 S   0  0  0  0  0  0  0  0  0  0  0  0
    4.6004   -0.0420   -3.5195 C   0  0  0  0  0  0  0  0  0  0  0  0
    3.5265    0.0590   -4.2269 N   0  0  0  0  0  0  0  0  0  0  0  0
    3.7543    0.0324   -5.6019 C   0  0  0  0  0  0  0  0  0  0  0  0
    4.8831   -0.0710   -6.0965 O   0  0  0  0  0  0  0  0  0  0  0  0
    2.6226    0.1374   -6.3422 N   0  0  0  0  0  0  0  0  0  0  0  0
    2.6235   -0.0125   -7.7879 C   0  0  0  0  0  0  0  0  0  0  0  0
    2.3815   -1.4377   -8.2443 C   0  0  0  0  0  0  0  0  0  0  0  0
    1.1843   -1.8013   -8.8718 C   0  0  0  0  0  0  0  0  0  0  0  0
    0.9580   -3.1242   -9.2661 C   0  0  0  0  0  0  0  0  0  0  0  0
    1.9310   -4.0977   -9.0319 C   0  0  0  0  0  0  0  0  0  0  0  0
    3.1311   -3.7427   -8.4051 C   0  0  0  0  0  0  0  0  0  0  0  0
    3.3571   -2.4224   -8.0149 C   0  0  0  0  0  0  0  0  0  0  0  0
    4.6137   -0.0465   -2.1493 N   0  0  0  0  0  0  0  0  0  0  0  0
    3.6908    0.0382   -1.1067 C   0  0  0  0  0  0  0  0  0  0  0  0
    2.3111    0.1724   -1.0716 C   0  0  0  0  0  0  0  0  0  0  0  0
    1.9958    0.1863    2.3435 H   0  0  0  0  0  0  0  0  0  0  0  0
    4.5013   -0.0570    2.2228 H   0  0  0  0  0  0  0  0  0  0  0  0
    1.7476    0.0790   -5.8348 H   0  0  0  0  0  0  0  0  0  0  0  0
    3.6064    0.3341   -8.1365 H   0  0  0  0  0  0  0  0  0  0  0  0
    1.8583    0.6556   -8.2120 H   0  0  0  0  0  0  0  0  0  0  0  0
    0.4202   -1.0407   -9.0576 H   0  0  0  0  0  0  0  0  0  0  0  0
    0.0194   -3.3932   -9.7569 H   0  0  0  0  0  0  0  0  0  0  0  0
    1.7574   -5.1319   -9.3390 H   0  0  0  0  0  0  0  0  0  0  0  0
    3.8977   -4.5003   -8.2246 H   0  0  0  0  0  0  0  0  0  0  0  0
    4.2938   -2.1388   -7.5291 H   0  0  0  0  0  0  0  0  0  0  0  0
    1.7249    0.2340   -1.9862 H   0  0  0  0  0  0  0  0  0  0  0  0
  1  2  1  0
  2  3  2  0
  2 24  1  0
  3  4  1  0
  3 25  1  0
  4  5  2  0
  4 26  1  0
  5  6  1  0
  5 23  1  0
  6  7  1  0
  7  8  2  0
  7 22  1  0
  8  9  1  0
  9 10  1  0
 10 11  2  0
 10 22  1  0
 11 12  1  0
 12 13  2  0
 12 14  1  0
 14 15  1  0
 14 27  1  0
 15 16  1  0
 15 28  1  0
 15 29  1  0
 16 17  2  0
 16 21  1  0
 17 18  1  0
 17 30  1  0
 18 19  2  0
 18 31  1  0
 19 20  1  0
 19 32  1  0
 20 21  2  0
 20 33  1  0
 21 34  1  0
 22 23  1  0
 23 24  2  0
 24 35  1  0
M  END

