rmsd108.gzmat
 OpenBabel08211713393D

 35 38  0  0  0  0  0  0  0  0999 V2000
    0.0000    0.0000    0.0000 Cl  0  0  0  0  0  0  0  0  0  0  0  0
    1.7071    0.0000    0.0000 C   0  0  0  0  0  0  0  0  0  0  0  0
    2.3656    0.0000    1.2235 C   0  0  0  0  0  0  0  0  0  0  0  0
    3.7694    0.0027    1.2718 C   0  0  0  0  0  0  0  0  0  0  0  0
    4.4183    0.0019    0.0611 C   0  0  0  0  0  0  0  0  0  0  0  0
    5.8145    0.0029   -0.1136 O   0  0  0  0  0  0  0  0  0  0  0  0
    6.0130   -0.0080   -1.4757 C   0  0  0  0  0  0  0  0  0  0  0  0
    7.0942   -0.0227   -2.1700 N   0  0  0  0  0  0  0  0  0  0  0  0
    6.6342   -0.0423   -3.8891 S   0  0  0  0  0  0  0  0  0  0  0  0
    4.8331   -0.0297   -3.5450 C   0  0  0  0  0  0  0  0  0  0  0  0
    3.7872   -0.0434   -4.2971 N   0  0  0  0  0  0  0  0  0  0  0  0
    3.9033   -0.0830   -5.7154 C   0  0  0  0  0  0  0  0  0  0  0  0
    4.9788   -0.1113   -6.2905 O   0  0  0  0  0  0  0  0  0  0  0  0
    2.6856   -0.0408   -6.3475 N   0  0  0  0  0  0  0  0  0  0  0  0
    2.6393   -0.2843   -7.7944 C   0  0  0  0  0  0  0  0  0  0  0  0
    2.5485   -1.7598   -8.0909 C   0  0  0  0  0  0  0  0  0  0  0  0
    1.3321   -2.3333   -8.4576 C   0  0  0  0  0  0  0  0  0  0  0  0
    1.2616   -3.7008   -8.7194 C   0  0  0  0  0  0  0  0  0  0  0  0
    2.4030   -4.4927   -8.6118 C   0  0  0  0  0  0  0  0  0  0  0  0
    3.6187   -3.9175   -8.2424 C   0  0  0  0  0  0  0  0  0  0  0  0
    3.6932   -2.5516   -7.9841 C   0  0  0  0  0  0  0  0  0  0  0  0
    4.7406   -0.0053   -2.1590 N   0  0  0  0  0  0  0  0  0  0  0  0
    3.7306   -0.0024   -1.1881 C   0  0  0  0  0  0  0  0  0  0  0  0
    2.3509   -0.0019   -1.2418 C   0  0  0  0  0  0  0  0  0  0  0  0
    1.8026   -0.0028    2.1592 H   0  0  0  0  0  0  0  0  0  0  0  0
    4.3070    0.0046    2.2186 H   0  0  0  0  0  0  0  0  0  0  0  0
    1.8313   -0.1534   -5.8206 H   0  0  0  0  0  0  0  0  0  0  0  0
    3.5544    0.1530   -8.2736 H   0  0  0  0  0  0  0  0  0  0  0  0
    1.7713    0.2766   -8.2126 H   0  0  0  0  0  0  0  0  0  0  0  0
    0.4371   -1.7208   -8.5417 H   0  0  0  0  0  0  0  0  0  0  0  0
    0.3137   -4.1490   -9.0087 H   0  0  0  0  0  0  0  0  0  0  0  0
    2.3455   -5.5600   -8.8144 H   0  0  0  0  0  0  0  0  0  0  0  0
    4.5098   -4.5362   -8.1549 H   0  0  0  0  0  0  0  0  0  0  0  0
    4.6441   -2.0974   -7.6923 H   0  0  0  0  0  0  0  0  0  0  0  0
    1.8138   -0.0036   -2.1933 H   0  0  0  0  0  0  0  0  0  0  0  0
  2  1  1  0  0  0  0
  2  3  2  0  0  0  0
  3  4  1  0  0  0  0
  3 25  1  0  0  0  0
  4 26  1  0  0  0  0
  5  4  2  0  0  0  0
  6  5  1  0  0  0  0
  7  6  1  0  0  0  0
  8  7  2  0  0  0  0
  9 10  1  0  0  0  0
  9  8  1  0  0  0  0
 10 22  1  0  0  0  0
 11 10  2  0  0  0  0
 12 11  1  0  0  0  0
 13 12  2  0  0  0  0
 14 27  1  0  0  0  0
 14 12  1  0  0  0  0
 15 14  1  0  0  0  0
 16 21  1  0  0  0  0
 16 15  1  0  0  0  0
 17 16  2  0  0  0  0
 18 19  2  0  0  0  0
 18 17  1  0  0  0  0
 19 20  1  0  0  0  0
 20 33  1  0  0  0  0
 20 21  2  0  0  0  0
 21 34  1  0  0  0  0
 22  7  1  0  0  0  0
 22 23  1  0  0  0  0
 23  5  1  0  0  0  0
 24 23  2  0  0  0  0
 24  2  1  0  0  0  0
 28 15  1  0  0  0  0
 29 15  1  0  0  0  0
 30 17  1  0  0  0  0
 31 18  1  0  0  0  0
 32 19  1  0  0  0  0
 35 24  1  0  0  0  0
M  END
$$$$
