35
rmsd112.gzmat
Cl         0.00000        0.00000        0.00000
C          1.70690        0.00000        0.00000
C          2.36630        0.00000        1.22310
C          3.77040       -0.00510        1.27040
C          4.41850       -0.00920        0.05920
O          5.81480       -0.01640       -0.11770
C          6.01090       -0.02400       -1.48020
N          7.09130       -0.03780       -2.17650
S          6.62690       -0.04920       -3.89470
C          4.82670       -0.03120       -3.54810
N          3.77700       -0.03530       -4.29340
C          3.87190       -0.07790       -5.71280
O          4.93500       -0.14540       -6.30560
N          2.64400        0.00780       -6.32360
C          2.56160       -0.27040       -7.76310
C          2.40330       -1.74900       -8.00950
C          1.13960       -2.29900       -8.21870
C          1.00700       -3.67160       -8.42200
C          2.13400       -4.49150       -8.41560
C          3.39690       -3.93980       -8.20230
C          3.53320       -2.56920       -7.99970
N          4.73750       -0.01630       -2.16110
C          3.72900       -0.00910       -1.18910
C          2.34940       -0.00380       -1.24200
H          1.80330        0.00310        2.15860
H          4.30860       -0.00570        2.21670
H          1.79780       -0.08140       -5.77840
H          3.48440        0.11590       -8.26870
H          1.70920        0.31260       -8.18210
H          0.25670       -1.66370       -8.22230
H          0.02120       -4.10310       -8.58310
H          2.02920       -5.56260       -8.57640
H          4.27670       -4.58060       -8.19270
H          4.52000       -2.13320       -7.82260
H          1.81150       -0.00260       -2.19300
