35
rmsd126.gzmat
Cl         0.00000        0.00000        0.00000
C          1.70700        0.00000        0.00000
C          2.36560        0.00000        1.22320
C          3.76960       -0.00040        1.27070
C          4.41770        0.00110        0.05950
O          5.81380        0.00360       -0.11560
C          6.01180        0.00630       -1.47780
N          7.09330        0.01100       -2.17210
S          6.63300        0.01600       -3.89120
C          4.83190        0.01670       -3.54730
N          3.78630        0.02390       -4.29950
C          3.90100        0.03450       -5.71850
O          4.97440       -0.00520       -6.29670
N          2.68560        0.14450       -6.34560
C          2.62990       -0.00190       -7.80480
C          2.39770       -1.43840       -8.19770
C          1.15760       -1.84000       -8.69220
C          0.95250       -3.17170       -9.04890
C          1.98260       -4.09950       -8.90710
C          3.22200       -3.69620       -8.41090
C          3.43200       -2.36560       -8.05960
N          4.73910        0.00440       -2.16100
C          3.72940        0.00150       -1.19000
C          2.34980        0.00030       -1.24270
H          1.80290       -0.00110        2.15900
H          4.30720       -0.00210        2.21750
H          1.82700        0.03560       -5.82480
H          3.58650        0.37290       -8.25540
H          1.82290        0.66620       -8.18830
H          0.35030       -1.11990       -8.80430
H         -0.01300       -3.48630       -9.43900
H          1.82040       -5.13940       -9.18370
H          4.02570       -4.42160       -8.29810
H          4.40310       -2.04330       -7.67460
H          1.81090        0.00030       -2.19320
