rmsd12.gzmat
 OpenBabel08211713393D

 35 38  0  0  0  0  0  0  0  0999 V2000
    0.0000    0.0000    0.0000 Cl  0  0  0  0  0  0  0  0  0  0  0  0
    1.7070    0.0000    0.0000 C   0  0  0  0  0  0  0  0  0  0  0  0
    2.3660    0.0000    1.2234 C   0  0  0  0  0  0  0  0  0  0  0  0
    3.7699   -0.0008    1.2712 C   0  0  0  0  0  0  0  0  0  0  0  0
    4.4182   -0.0032    0.0601 C   0  0  0  0  0  0  0  0  0  0  0  0
    5.8144   -0.0066   -0.1155 O   0  0  0  0  0  0  0  0  0  0  0  0
    6.0119   -0.0204   -1.4778 C   0  0  0  0  0  0  0  0  0  0  0  0
    7.0927   -0.0425   -2.1730 N   0  0  0  0  0  0  0  0  0  0  0  0
    6.6302   -0.0633   -3.8914 S   0  0  0  0  0  0  0  0  0  0  0  0
    4.8299   -0.0313   -3.5469 C   0  0  0  0  0  0  0  0  0  0  0  0
    3.7810   -0.0232   -4.2934 N   0  0  0  0  0  0  0  0  0  0  0  0
    3.8758   -0.0687   -5.7127 C   0  0  0  0  0  0  0  0  0  0  0  0
    4.9357   -0.1801   -6.3045 O   0  0  0  0  0  0  0  0  0  0  0  0
    2.6539    0.0703   -6.3254 N   0  0  0  0  0  0  0  0  0  0  0  0
    2.5621   -0.1962   -7.7665 C   0  0  0  0  0  0  0  0  0  0  0  0
    2.3118   -1.6606   -8.0217 C   0  0  0  0  0  0  0  0  0  0  0  0
    1.0229   -2.1196   -8.2892 C   0  0  0  0  0  0  0  0  0  0  0  0
    0.8017   -3.4797   -8.4979 C   0  0  0  0  0  0  0  0  0  0  0  0
    1.8652   -4.3780   -8.4379 C   0  0  0  0  0  0  0  0  0  0  0  0
    3.1539   -3.9167   -8.1712 C   0  0  0  0  0  0  0  0  0  0  0  0
    3.3787   -2.5586   -7.9639 C   0  0  0  0  0  0  0  0  0  0  0  0
    4.7394   -0.0117   -2.1600 N   0  0  0  0  0  0  0  0  0  0  0  0
    3.7299   -0.0053   -1.1887 C   0  0  0  0  0  0  0  0  0  0  0  0
    2.3503   -0.0036   -1.2421 C   0  0  0  0  0  0  0  0  0  0  0  0
    1.8034   -0.0016    2.1593 H   0  0  0  0  0  0  0  0  0  0  0  0
    4.3075   -0.0014    2.2179 H   0  0  0  0  0  0  0  0  0  0  0  0
    1.8036    0.0167   -5.7823 H   0  0  0  0  0  0  0  0  0  0  0  0
    3.5096    0.1332   -8.2665 H   0  0  0  0  0  0  0  0  0  0  0  0
    1.7497    0.4416   -8.1860 H   0  0  0  0  0  0  0  0  0  0  0  0
    0.1889   -1.4230   -8.3341 H   0  0  0  0  0  0  0  0  0  0  0  0
   -0.2032   -3.8407   -8.7055 H   0  0  0  0  0  0  0  0  0  0  0  0
    1.6902   -5.4399   -8.5983 H   0  0  0  0  0  0  0  0  0  0  0  0
    3.9848   -4.6183   -8.1229 H   0  0  0  0  0  0  0  0  0  0  0  0
    4.3860   -2.1928   -7.7472 H   0  0  0  0  0  0  0  0  0  0  0  0
    1.8125   -0.0059   -2.1932 H   0  0  0  0  0  0  0  0  0  0  0  0
  2  1  1  0  0  0  0
  2  3  2  0  0  0  0
  3  4  1  0  0  0  0
  3 25  1  0  0  0  0
  4 26  1  0  0  0  0
  5  4  2  0  0  0  0
  6  5  1  0  0  0  0
  7  6  1  0  0  0  0
  8  7  2  0  0  0  0
  9 10  1  0  0  0  0
  9  8  1  0  0  0  0
 10 22  1  0  0  0  0
 11 10  2  0  0  0  0
 12 11  1  0  0  0  0
 13 12  2  0  0  0  0
 14 27  1  0  0  0  0
 14 12  1  0  0  0  0
 15 14  1  0  0  0  0
 16 21  1  0  0  0  0
 16 15  1  0  0  0  0
 17 16  2  0  0  0  0
 18 19  2  0  0  0  0
 18 17  1  0  0  0  0
 19 20  1  0  0  0  0
 20 33  1  0  0  0  0
 20 21  2  0  0  0  0
 21 34  1  0  0  0  0
 22  7  1  0  0  0  0
 22 23  1  0  0  0  0
 23  5  1  0  0  0  0
 24 23  2  0  0  0  0
 24  2  1  0  0  0  0
 28 15  1  0  0  0  0
 29 15  1  0  0  0  0
 30 17  1  0  0  0  0
 31 18  1  0  0  0  0
 32 19  1  0  0  0  0
 35 24  1  0  0  0  0
M  END
$$$$
