35

Cl         0.00090        0.39050        0.33560
C          1.73300        0.22240        0.20640
C          2.49900        0.14210        1.37730
C          3.89510        0.00650        1.31890
C          4.46860       -0.04330        0.06170
O          5.80940       -0.17260       -0.25370
C          5.89470       -0.17450       -1.61010
N          6.89770       -0.26930       -2.38240
S          6.31210       -0.20390       -4.01770
C          4.60040       -0.04200       -3.51950
N          3.52650        0.05900       -4.22690
C          3.75430        0.03240       -5.60190
O          4.88310       -0.07100       -6.09650
N          2.62260        0.13740       -6.34220
C          2.62350       -0.01250       -7.78790
C          2.38150       -1.43770       -8.24430
C          1.18430       -1.80130       -8.87180
C          0.95800       -3.12420       -9.26610
C          1.93100       -4.09770       -9.03190
C          3.13110       -3.74270       -8.40510
C          3.35710       -2.42240       -8.01490
N          4.61370       -0.04650       -2.14930
C          3.69080        0.03820       -1.10670
C          2.31110        0.17240       -1.07160
H          1.99580        0.18630        2.34350
H          4.50130       -0.05700        2.22280
H          1.74760        0.07900       -5.83480
H          3.60640        0.33410       -8.13650
H          1.85830        0.65560       -8.21200
H          0.42020       -1.04070       -9.05760
H          0.01940       -3.39320       -9.75690
H          1.75740       -5.13190       -9.33900
H          3.89770       -4.50030       -8.22460
H          4.29380       -2.13880       -7.52910
H          1.72490        0.23400       -1.98620
