35
rmsd12.gzmat
Cl         0.00000        0.00000        0.00000
C          1.70700        0.00000        0.00000
C          2.36600        0.00000        1.22340
C          3.76990       -0.00080        1.27120
C          4.41820       -0.00320        0.06010
O          5.81440       -0.00660       -0.11550
C          6.01190       -0.02040       -1.47780
N          7.09270       -0.04250       -2.17300
S          6.63020       -0.06330       -3.89140
C          4.82990       -0.03130       -3.54690
N          3.78100       -0.02320       -4.29340
C          3.87580       -0.06870       -5.71270
O          4.93570       -0.18010       -6.30450
N          2.65390        0.07030       -6.32540
C          2.56210       -0.19620       -7.76650
C          2.31180       -1.66060       -8.02170
C          1.02290       -2.11960       -8.28920
C          0.80170       -3.47970       -8.49790
C          1.86520       -4.37800       -8.43790
C          3.15390       -3.91670       -8.17120
C          3.37870       -2.55860       -7.96390
N          4.73940       -0.01170       -2.16000
C          3.72990       -0.00530       -1.18870
C          2.35030       -0.00360       -1.24210
H          1.80340       -0.00160        2.15930
H          4.30750       -0.00140        2.21790
H          1.80360        0.01670       -5.78230
H          3.50960        0.13320       -8.26650
H          1.74970        0.44160       -8.18600
H          0.18890       -1.42300       -8.33410
H         -0.20320       -3.84070       -8.70550
H          1.69020       -5.43990       -8.59830
H          3.98480       -4.61830       -8.12290
H          4.38600       -2.19280       -7.74720
H          1.81250       -0.00590       -2.19320
