rmsd122.gzmat
 OpenBabel08211713393D

 35 38  0  0  0  0  0  0  0  0999 V2000
    0.0000    0.0000    0.0000 Cl  0  0  0  0  0  0  0  0  0  0  0  0
    1.7071    0.0000    0.0000 C   0  0  0  0  0  0  0  0  0  0  0  0
    2.3637    0.0000    1.2246 C   0  0  0  0  0  0  0  0  0  0  0  0
    3.7672   -0.0047    1.2743 C   0  0  0  0  0  0  0  0  0  0  0  0
    4.4173   -0.0084    0.0640 C   0  0  0  0  0  0  0  0  0  0  0  0
    5.8139   -0.0131   -0.1083 O   0  0  0  0  0  0  0  0  0  0  0  0
    6.0145   -0.0064   -1.4700 C   0  0  0  0  0  0  0  0  0  0  0  0
    7.0975    0.0036   -2.1614 N   0  0  0  0  0  0  0  0  0  0  0  0
    6.6423    0.0231   -3.8815 S   0  0  0  0  0  0  0  0  0  0  0  0
    4.8397    0.0196   -3.5419 C   0  0  0  0  0  0  0  0  0  0  0  0
    3.7990    0.0298   -4.3015 N   0  0  0  0  0  0  0  0  0  0  0  0
    3.9315    0.0635   -5.7191 C   0  0  0  0  0  0  0  0  0  0  0  0
    5.0143    0.0559   -6.2820 O   0  0  0  0  0  0  0  0  0  0  0  0
    2.7250    0.1579   -6.3641 N   0  0  0  0  0  0  0  0  0  0  0  0
    2.6988    0.0514   -7.8274 C   0  0  0  0  0  0  0  0  0  0  0  0
    2.5350   -1.3804   -8.2686 C   0  0  0  0  0  0  0  0  0  0  0  0
    1.3165   -1.8272   -8.7775 C   0  0  0  0  0  0  0  0  0  0  0  0
    1.1812   -3.1524   -9.1886 C   0  0  0  0  0  0  0  0  0  0  0  0
    2.2588   -4.0297   -9.0854 C   0  0  0  0  0  0  0  0  0  0  0  0
    3.4756   -3.5823   -8.5714 C   0  0  0  0  0  0  0  0  0  0  0  0
    3.6153   -2.2583   -8.1644 C   0  0  0  0  0  0  0  0  0  0  0  0
    4.7426   -0.0059   -2.1562 N   0  0  0  0  0  0  0  0  0  0  0  0
    3.7313   -0.0047   -1.1867 C   0  0  0  0  0  0  0  0  0  0  0  0
    2.3517   -0.0016   -1.2421 C   0  0  0  0  0  0  0  0  0  0  0  0
    1.7993    0.0031    2.1595 H   0  0  0  0  0  0  0  0  0  0  0  0
    4.3040   -0.0051    2.2215 H   0  0  0  0  0  0  0  0  0  0  0  0
    1.8594    0.0298   -5.8617 H   0  0  0  0  0  0  0  0  0  0  0  0
    3.6481    0.4766   -8.2488 H   0  0  0  0  0  0  0  0  0  0  0  0
    1.8734    0.6982   -8.2068 H   0  0  0  0  0  0  0  0  0  0  0  0
    0.4707   -1.1481   -8.8579 H   0  0  0  0  0  0  0  0  0  0  0  0
    0.2326   -3.5005   -9.5918 H   0  0  0  0  0  0  0  0  0  0  0  0
    2.1516   -5.0634   -9.4078 H   0  0  0  0  0  0  0  0  0  0  0  0
    4.3183   -4.2667   -8.4911 H   0  0  0  0  0  0  0  0  0  0  0  0
    4.5676   -1.9023   -7.7618 H   0  0  0  0  0  0  0  0  0  0  0  0
    1.8159   -0.0008   -2.1944 H   0  0  0  0  0  0  0  0  0  0  0  0
  2  1  1  0  0  0  0
  2  3  2  0  0  0  0
  3  4  1  0  0  0  0
  3 25  1  0  0  0  0
  4 26  1  0  0  0  0
  5  4  2  0  0  0  0
  6  5  1  0  0  0  0
  7  6  1  0  0  0  0
  8  7  2  0  0  0  0
  9 10  1  0  0  0  0
  9  8  1  0  0  0  0
 10 22  1  0  0  0  0
 11 10  2  0  0  0  0
 12 11  1  0  0  0  0
 13 12  2  0  0  0  0
 14 27  1  0  0  0  0
 14 12  1  0  0  0  0
 15 14  1  0  0  0  0
 16 21  1  0  0  0  0
 16 15  1  0  0  0  0
 17 16  2  0  0  0  0
 18 19  2  0  0  0  0
 18 17  1  0  0  0  0
 19 20  1  0  0  0  0
 20 33  1  0  0  0  0
 20 21  2  0  0  0  0
 21 34  1  0  0  0  0
 22  7  1  0  0  0  0
 22 23  1  0  0  0  0
 23  5  1  0  0  0  0
 24 23  2  0  0  0  0
 24  2  1  0  0  0  0
 28 15  1  0  0  0  0
 29 15  1  0  0  0  0
 30 17  1  0  0  0  0
 31 18  1  0  0  0  0
 32 19  1  0  0  0  0
 35 24  1  0  0  0  0
M  END
$$$$
