
     RDKit          3D

 33 34  0  0  0  0  0  0  0  0999 V2000
    0.0807   -0.0024    0.0085 N   0  0  0  0  0  0  0  0  0  0  0  0
    1.4946    0.2533    0.0717 C   0  0  0  0  0  0  0  0  0  0  0  0
   -0.6524    0.0167   -1.1304 C   0  0  0  0  0  0  0  0  0  0  0  0
   -2.0589   -0.2793   -1.1082 C   0  0  0  0  0  0  0  0  0  0  0  0
   -2.7307   -0.6622    0.1477 C   0  0  0  0  0  0  0  0  0  0  0  0
   -2.1821   -0.5577    1.2476 O   0  0  0  0  0  0  0  0  0  0  0  0
   -4.1554   -1.1475    0.1192 C   0  0  0  0  0  0  0  0  0  0  0  0
   -4.5773   -2.2431   -0.6678 C   0  0  0  0  0  0  0  0  0  0  0  0
   -3.6237   -2.8590   -1.4063 O   0  0  0  0  0  0  0  0  0  0  0  0
   -3.9950   -3.8381   -2.3503 C   0  0  0  0  0  0  0  0  0  0  0  0
   -5.9191   -2.6492   -0.6337 C   0  0  0  0  0  0  0  0  0  0  0  0
   -6.8283   -1.9869    0.1960 C   0  0  0  0  0  0  0  0  0  0  0  0
   -6.4136   -0.9290    1.0059 C   0  0  0  0  0  0  0  0  0  0  0  0
   -5.0771   -0.5276    0.9697 C   0  0  0  0  0  0  0  0  0  0  0  0
   -2.7960   -0.1981   -2.3052 C   0  0  0  0  0  0  0  0  0  0  0  0
   -2.1863    0.1199   -3.5065 C   0  0  0  0  0  0  0  0  0  0  0  0
   -3.2191    0.2014   -5.1115 Br  0  0  0  0  0  0  0  0  0  0  0  0
   -0.8067    0.3720   -3.5478 C   0  0  0  0  0  0  0  0  0  0  0  0
   -0.0569    0.3242   -2.3836 C   0  0  0  0  0  0  0  0  0  0  0  0
   -0.4614   -0.1771    0.8556 H   0  0  0  0  0  0  0  0  0  0  0  0
    2.0775   -0.4639   -0.5351 H   0  0  0  0  0  0  0  0  0  0  0  0
    1.8265    0.1579    1.1144 H   0  0  0  0  0  0  0  0  0  0  0  0
    1.7559    1.2709   -0.2747 H   0  0  0  0  0  0  0  0  0  0  0  0
   -3.0749   -4.1275   -2.8740 H   0  0  0  0  0  0  0  0  0  0  0  0
   -4.7166   -3.4389   -3.0847 H   0  0  0  0  0  0  0  0  0  0  0  0
   -4.4297   -4.7306   -1.8665 H   0  0  0  0  0  0  0  0  0  0  0  0
   -6.2577   -3.4886   -1.2400 H   0  0  0  0  0  0  0  0  0  0  0  0
   -7.8708   -2.3141    0.2111 H   0  0  0  0  0  0  0  0  0  0  0  0
   -7.1235   -0.4210    1.6615 H   0  0  0  0  0  0  0  0  0  0  0  0
   -4.7256    0.2910    1.6010 H   0  0  0  0  0  0  0  0  0  0  0  0
   -3.8687   -0.3815   -2.2794 H   0  0  0  0  0  0  0  0  0  0  0  0
   -0.3251    0.6151   -4.4967 H   0  0  0  0  0  0  0  0  0  0  0  0
    1.0103    0.5369   -2.4352 H   0  0  0  0  0  0  0  0  0  0  0  0
  1  2  1  0
  1  3  1  0
  1 20  1  0
  2 21  1  0
  2 22  1  0
  2 23  1  0
  3  4  2  0
  3 19  1  0
  4  5  1  0
  4 15  1  0
  5  6  2  0
  5  7  1  0
  7  8  2  0
  7 14  1  0
  8  9  1  0
  8 11  1  0
  9 10  1  0
 10 24  1  0
 10 25  1  0
 10 26  1  0
 11 12  2  0
 11 27  1  0
 12 13  1  0
 12 28  1  0
 13 14  2  0
 13 29  1  0
 14 30  1  0
 15 16  2  0
 15 31  1  0
 16 17  1  0
 16 18  1  0
 18 19  2  0
 18 32  1  0
 19 33  1  0
M  END

