33
rmsd114.gzmat
N          0.00000        0.00000        0.00000
C          1.45830        0.00000        0.00000
C         -0.73360        0.00000       -1.14540
C         -2.14980       -0.16090       -1.08440
C         -2.82900       -0.47700        0.17570
O         -2.29780       -0.30330        1.25900
C         -4.20480       -1.02780        0.14220
C         -4.53390       -2.13490       -0.66050
O         -3.49070       -2.59220       -1.39500
C         -3.73820       -3.66530       -2.29460
C         -5.82280       -2.67150       -0.65780
C         -6.78670       -2.09240        0.16430
C         -6.47330       -1.00300        0.97560
C         -5.18060       -0.48090        0.97140
C         -2.89990       -0.04250       -2.26070
C         -2.26860        0.16530       -3.47040
Br        -3.31090        0.29870       -5.04930
C         -0.87630        0.26560       -3.56230
C         -0.11480        0.18330       -2.41800
H         -0.47560       -0.11800        0.89780
H          1.86960       -0.83830       -0.59200
H          1.83100       -0.10090        1.03490
H          1.85600        0.94710       -0.41070
H         -2.75670       -3.78660       -2.77570
H         -4.49230       -3.38960       -3.03810
H         -4.01580       -4.57290       -1.75110
H         -6.07770       -3.52540       -1.27490
H         -7.79810       -2.49990        0.17410
H         -7.23370       -0.56470        1.61610
H         -4.92220        0.35980        1.62090
H         -3.99170       -0.11830       -2.20660
H         -0.39160        0.41250       -4.53040
H          0.96480        0.26980       -2.48180
