rmsd109.gzmat
 OpenBabel08211713393D

 33 34  0  0  0  0  0  0  0  0999 V2000
    0.0000    0.0000    0.0000 N   0  0  0  0  0  0  0  0  0  0  0  0
    1.4584    0.0000    0.0000 C   0  0  0  0  0  0  0  0  0  0  0  0
   -0.7344    0.0000   -1.1444 C   0  0  0  0  0  0  0  0  0  0  0  0
   -2.1546    0.1261   -1.0792 C   0  0  0  0  0  0  0  0  0  0  0  0
   -2.8377    0.4209    0.1832 C   0  0  0  0  0  0  0  0  0  0  0  0
   -2.2824    0.2997    1.2625 O   0  0  0  0  0  0  0  0  0  0  0  0
   -4.2491    0.8741    0.1675 C   0  0  0  0  0  0  0  0  0  0  0  0
   -4.6788    1.9402   -0.6429 C   0  0  0  0  0  0  0  0  0  0  0  0
   -3.6878    2.4705   -1.4002 O   0  0  0  0  0  0  0  0  0  0  0  0
   -4.0386    3.4968   -2.3199 C   0  0  0  0  0  0  0  0  0  0  0  0
   -6.0068    2.3707   -0.6260 C   0  0  0  0  0  0  0  0  0  0  0  0
   -6.9078    1.7302    0.2214 C   0  0  0  0  0  0  0  0  0  0  0  0
   -6.4935    0.6851    1.0456 C   0  0  0  0  0  0  0  0  0  0  0  0
   -5.1635    0.2680    1.0253 C   0  0  0  0  0  0  0  0  0  0  0  0
   -2.9025   -0.0101   -2.2555 C   0  0  0  0  0  0  0  0  0  0  0  0
   -2.2688   -0.1861   -3.4683 C   0  0  0  0  0  0  0  0  0  0  0  0
   -3.3093   -0.3284   -5.0475 Br  0  0  0  0  0  0  0  0  0  0  0  0
   -0.8743   -0.2449   -3.5639 C   0  0  0  0  0  0  0  0  0  0  0  0
   -0.1137   -0.1547   -2.4199 C   0  0  0  0  0  0  0  0  0  0  0  0
   -0.4757    0.1224    0.8982 H   0  0  0  0  0  0  0  0  0  0  0  0
    1.8576   -0.9132   -0.4794 H   0  0  0  0  0  0  0  0  0  0  0  0
    1.8300    0.0216    1.0400 H   0  0  0  0  0  0  0  0  0  0  0  0
    1.8691    0.8801   -0.5278 H   0  0  0  0  0  0  0  0  0  0  0  0
   -3.0763    3.6912   -2.8168 H   0  0  0  0  0  0  0  0  0  0  0  0
   -4.3862    4.3901   -1.7936 H   0  0  0  0  0  0  0  0  0  0  0  0
   -4.7752    3.1392   -3.0461 H   0  0  0  0  0  0  0  0  0  0  0  0
   -6.3396    3.1898   -1.2532 H   0  0  0  0  0  0  0  0  0  0  0  0
   -7.9489    2.0537    0.2415 H   0  0  0  0  0  0  0  0  0  0  0  0
   -7.2039    0.1999    1.7093 H   0  0  0  0  0  0  0  0  0  0  0  0
   -4.8269   -0.5364    1.6843 H   0  0  0  0  0  0  0  0  0  0  0  0
   -3.9962    0.0260   -2.1990 H   0  0  0  0  0  0  0  0  0  0  0  0
   -0.3888   -0.3662   -4.5346 H   0  0  0  0  0  0  0  0  0  0  0  0
    0.9675   -0.2085   -2.4865 H   0  0  0  0  0  0  0  0  0  0  0  0
  1 20  1  0  0  0  0
  2  1  1  0  0  0  0
  2 22  1  0  0  0  0
  3  4  1  0  0  0  0
  3  1  1  0  0  0  0
  4  5  1  0  0  0  0
  5  6  2  0  0  0  0
  7  5  1  0  0  0  0
  7 14  2  0  0  0  0
  8 11  2  0  0  0  0
  8  7  1  0  0  0  0
  9  8  1  0  0  0  0
 10 25  1  0  0  0  0
 10  9  1  0  0  0  0
 11 12  1  0  0  0  0
 12 28  1  0  0  0  0
 12 13  2  0  0  0  0
 13 29  1  0  0  0  0
 14 13  1  0  0  0  0
 14 30  1  0  0  0  0
 15 31  1  0  0  0  0
 15  4  2  0  0  0  0
 16 15  1  0  0  0  0
 17 16  1  0  0  0  0
 18 16  2  0  0  0  0
 18 19  1  0  0  0  0
 19  3  2  0  0  0  0
 21  2  1  0  0  0  0
 23  2  1  0  0  0  0
 24 10  1  0  0  0  0
 26 10  1  0  0  0  0
 27 11  1  0  0  0  0
 32 18  1  0  0  0  0
 33 19  1  0  0  0  0
M  END
$$$$
