33
rmsd106.gzmat
N          0.00000        0.00000        0.00000
C          1.45860        0.00000        0.00000
C         -0.73600        0.00000       -1.14390
C         -2.15380        0.14760       -1.07670
C         -2.82540        0.49520        0.17820
O         -2.27490        0.37690        1.26030
C         -4.21490        1.01040        0.15180
C         -4.59870        2.06770       -0.69220
O         -3.59530        2.51050       -1.48800
C         -3.89260        3.56000       -2.40050
C         -5.89910        2.57570       -0.66830
C         -6.81950        2.01810        0.21590
C         -6.45230        0.97670        1.06660
C         -5.14890        0.48320        1.04070
C         -2.91050       -0.01750       -2.24350
C         -2.28460       -0.23840       -3.45330
Br        -3.33620       -0.43780       -5.01890
C         -0.89070       -0.30090       -3.55570
C         -0.12250       -0.18250       -2.41900
H         -0.47280        0.15300        0.89530
H          1.85990       -0.87460       -0.54480
H          1.82790       -0.05900        1.03960
H          1.86960        0.91740       -0.45920
H         -2.92360        3.70560       -2.90020
H         -4.19100        4.46880       -1.86990
H         -4.65020        3.24530       -3.12490
H         -6.19580        3.39130       -1.31790
H         -7.83820        2.40580        0.24490
H         -7.17840        0.55450        1.75590
H         -4.84780       -0.31800        1.72070
H         -4.00310        0.03250       -2.18150
H         -0.41030       -0.44660       -4.52560
H          0.95860       -0.23770       -2.49110
