33
rmsd110.gzmat
N          0.00000        0.00000        0.00000
C          1.45820        0.00000        0.00000
C         -0.73640        0.00000       -1.14230
C         -2.16030        0.08720       -1.07270
C         -2.84780        0.31950        0.19910
O         -2.26890        0.24190        1.27070
C         -4.29450        0.64590        0.21380
C         -4.82710        1.70680       -0.53940
O         -3.90090        2.34870       -1.29280
C         -4.35290        3.39880       -2.13850
C         -6.18530        2.02450       -0.47910
C         -7.01330        1.27120        0.34980
C         -6.49830        0.22500        1.11320
C         -5.13890       -0.07690        1.05290
C         -2.90470       -0.03590       -2.25320
C         -2.26750       -0.17120       -3.46950
Br        -3.30510       -0.31150       -5.05060
C         -0.87170       -0.19630       -3.56710
C         -0.11280       -0.11350       -2.42200
H         -0.47550        0.09970        0.90170
H          1.85790       -0.90150       -0.50140
H          1.82930       -0.00510        1.04050
H          1.86800        0.89420       -0.50440
H         -3.42460        3.69110       -2.65020
H         -4.74540        4.23160       -1.54820
H         -5.08550        3.03300       -2.86400
H         -6.59730        2.84280       -1.05850
H         -8.07660        1.50630        0.40330
H         -7.15350       -0.35090        1.76110
H         -4.72420       -0.88110        1.66610
H         -3.99900       -0.02610       -2.19870
H         -0.38420       -0.28500       -4.54060
H          0.96960       -0.13960       -2.49030
