rmsd106.gzmat
 OpenBabel08211713393D

 33 34  0  0  0  0  0  0  0  0999 V2000
    0.0000    0.0000    0.0000 N   0  0  0  0  0  0  0  0  0  0  0  0
    1.4586    0.0000    0.0000 C   0  0  0  0  0  0  0  0  0  0  0  0
   -0.7360    0.0000   -1.1439 C   0  0  0  0  0  0  0  0  0  0  0  0
   -2.1538    0.1476   -1.0767 C   0  0  0  0  0  0  0  0  0  0  0  0
   -2.8254    0.4952    0.1782 C   0  0  0  0  0  0  0  0  0  0  0  0
   -2.2749    0.3769    1.2603 O   0  0  0  0  0  0  0  0  0  0  0  0
   -4.2149    1.0104    0.1518 C   0  0  0  0  0  0  0  0  0  0  0  0
   -4.5987    2.0677   -0.6922 C   0  0  0  0  0  0  0  0  0  0  0  0
   -3.5953    2.5105   -1.4880 O   0  0  0  0  0  0  0  0  0  0  0  0
   -3.8926    3.5600   -2.4005 C   0  0  0  0  0  0  0  0  0  0  0  0
   -5.8991    2.5757   -0.6683 C   0  0  0  0  0  0  0  0  0  0  0  0
   -6.8195    2.0181    0.2159 C   0  0  0  0  0  0  0  0  0  0  0  0
   -6.4523    0.9767    1.0666 C   0  0  0  0  0  0  0  0  0  0  0  0
   -5.1489    0.4832    1.0407 C   0  0  0  0  0  0  0  0  0  0  0  0
   -2.9105   -0.0175   -2.2435 C   0  0  0  0  0  0  0  0  0  0  0  0
   -2.2846   -0.2384   -3.4533 C   0  0  0  0  0  0  0  0  0  0  0  0
   -3.3362   -0.4378   -5.0189 Br  0  0  0  0  0  0  0  0  0  0  0  0
   -0.8907   -0.3009   -3.5557 C   0  0  0  0  0  0  0  0  0  0  0  0
   -0.1225   -0.1825   -2.4190 C   0  0  0  0  0  0  0  0  0  0  0  0
   -0.4728    0.1530    0.8953 H   0  0  0  0  0  0  0  0  0  0  0  0
    1.8599   -0.8746   -0.5448 H   0  0  0  0  0  0  0  0  0  0  0  0
    1.8279   -0.0590    1.0396 H   0  0  0  0  0  0  0  0  0  0  0  0
    1.8696    0.9174   -0.4592 H   0  0  0  0  0  0  0  0  0  0  0  0
   -2.9236    3.7056   -2.9002 H   0  0  0  0  0  0  0  0  0  0  0  0
   -4.1910    4.4688   -1.8699 H   0  0  0  0  0  0  0  0  0  0  0  0
   -4.6502    3.2453   -3.1249 H   0  0  0  0  0  0  0  0  0  0  0  0
   -6.1958    3.3913   -1.3179 H   0  0  0  0  0  0  0  0  0  0  0  0
   -7.8382    2.4058    0.2449 H   0  0  0  0  0  0  0  0  0  0  0  0
   -7.1784    0.5545    1.7559 H   0  0  0  0  0  0  0  0  0  0  0  0
   -4.8478   -0.3180    1.7207 H   0  0  0  0  0  0  0  0  0  0  0  0
   -4.0031    0.0325   -2.1815 H   0  0  0  0  0  0  0  0  0  0  0  0
   -0.4103   -0.4466   -4.5256 H   0  0  0  0  0  0  0  0  0  0  0  0
    0.9586   -0.2377   -2.4911 H   0  0  0  0  0  0  0  0  0  0  0  0
  1 20  1  0  0  0  0
  2  1  1  0  0  0  0
  2 22  1  0  0  0  0
  3  4  1  0  0  0  0
  3  1  1  0  0  0  0
  4  5  1  0  0  0  0
  5  6  2  0  0  0  0
  7  5  1  0  0  0  0
  7 14  2  0  0  0  0
  8 11  2  0  0  0  0
  8  7  1  0  0  0  0
  9  8  1  0  0  0  0
 10 25  1  0  0  0  0
 10  9  1  0  0  0  0
 11 12  1  0  0  0  0
 12 28  1  0  0  0  0
 12 13  2  0  0  0  0
 13 29  1  0  0  0  0
 14 13  1  0  0  0  0
 14 30  1  0  0  0  0
 15 31  1  0  0  0  0
 15  4  2  0  0  0  0
 16 15  1  0  0  0  0
 17 16  1  0  0  0  0
 18 16  2  0  0  0  0
 18 19  1  0  0  0  0
 19  3  2  0  0  0  0
 21  2  1  0  0  0  0
 23  2  1  0  0  0  0
 24 10  1  0  0  0  0
 26 10  1  0  0  0  0
 27 11  1  0  0  0  0
 32 18  1  0  0  0  0
 33 19  1  0  0  0  0
M  END
$$$$
