33
rmsd12.gzmat
N          0.00000        0.00000        0.00000
C          1.45840        0.00000        0.00000
C         -0.73580        0.00000       -1.14300
C         -2.15730       -0.11290       -1.07690
C         -2.84570       -0.34670        0.19530
O         -2.28860       -0.19750        1.27010
C         -4.26680       -0.77040        0.19160
C         -4.70430       -1.87700       -0.55810
O         -3.70960       -2.47270       -1.26030
C         -4.05650       -3.57400       -2.08960
C         -6.04100       -2.27930       -0.53990
C         -6.94160       -1.57200        0.25340
C         -6.51890       -0.48820        1.02150
C         -5.18110       -0.09610        0.99640
C         -2.90150       -0.02320       -2.26010
C         -2.26430        0.11080       -3.47680
Br        -3.30110        0.18700       -5.06310
C         -0.87000        0.17760       -3.56950
C         -0.11260        0.12690       -2.42080
H         -0.47620       -0.07670        0.90220
H          1.86910       -0.82480       -0.61160
H          1.83080       -0.12680        1.03230
H          1.85730        0.95610       -0.38880
H         -3.08030       -3.85210       -2.51370
H         -4.74140       -3.26230       -2.88420
H         -4.46680       -4.39740       -1.49780
H         -6.38220       -3.12440       -1.12660
H         -7.98860       -1.87490        0.27550
H         -7.22890        0.04740        1.64560
H         -4.83960        0.74140        1.61040
H         -3.99540       -0.06200       -2.20760
H         -0.38120        0.27360       -4.54150
H          0.96830        0.19190       -2.48560
