33
rmsd112.gzmat
N          0.00000        0.00000        0.00000
C          1.45830        0.00000        0.00000
C         -0.73690        0.00000       -1.14210
C         -2.15760       -0.12070       -1.07310
C         -2.83830       -0.39870        0.19410
O         -2.27740       -0.27500        1.27040
C         -4.25460       -0.83740        0.18980
C         -4.69410       -1.91660       -0.59710
O         -3.70880       -2.46660       -1.34780
C         -4.07130       -3.50000       -2.25440
C         -6.02450       -2.33880       -0.56590
C         -6.91750       -1.67520        0.27250
C         -6.49350       -0.61560        1.07290
C         -5.16150       -0.20630        1.03770
C         -2.90720        0.00620       -2.24940
C         -2.27450        0.17510       -3.46390
Br        -3.31760        0.31980       -5.04130
C         -0.87980        0.22900       -3.56240
C         -0.11760        0.14370       -2.41910
H         -0.47480       -0.10830        0.90050
H          1.87030       -0.84760       -0.57790
H          1.82930       -0.08460        1.03720
H          1.85640        0.94140       -0.42370
H         -3.11060       -3.71740       -2.74400
H         -4.79850       -3.14050       -2.98890
H         -4.43780       -4.37930       -1.71740
H         -6.36550       -3.16890       -1.17400
H         -7.95970       -1.99390        0.30510
H         -7.19770       -0.11300        1.73030
H         -4.81660        0.61060        1.67720
H         -4.00090       -0.02920       -2.19170
H         -0.39540        0.34310       -4.53470
H          0.96380        0.19490       -2.48670
