rmsd113.gzmat
 OpenBabel08211713393D

 33 34  0  0  0  0  0  0  0  0999 V2000
    0.0000    0.0000    0.0000 N   0  0  0  0  0  0  0  0  0  0  0  0
    1.4584    0.0000    0.0000 C   0  0  0  0  0  0  0  0  0  0  0  0
   -0.7365    0.0000   -1.1428 C   0  0  0  0  0  0  0  0  0  0  0  0
   -2.1575   -0.1123   -1.0741 C   0  0  0  0  0  0  0  0  0  0  0  0
   -2.8448   -0.3497    0.1985 C   0  0  0  0  0  0  0  0  0  0  0  0
   -2.3016   -0.1601    1.2735 O   0  0  0  0  0  0  0  0  0  0  0  0
   -4.2464   -0.8327    0.1914 C   0  0  0  0  0  0  0  0  0  0  0  0
   -4.6352   -1.9537   -0.5640 C   0  0  0  0  0  0  0  0  0  0  0  0
   -3.6200   -2.4919   -1.2827 O   0  0  0  0  0  0  0  0  0  0  0  0
   -3.9172   -3.6095   -2.1099 C   0  0  0  0  0  0  0  0  0  0  0  0
   -5.9503   -2.4217   -0.5370 C   0  0  0  0  0  0  0  0  0  0  0  0
   -6.8803   -1.7593    0.2612 C   0  0  0  0  0  0  0  0  0  0  0  0
   -6.5074   -0.6564    1.0275 C   0  0  0  0  0  0  0  0  0  0  0  0
   -5.1891   -0.2034    1.0003 C   0  0  0  0  0  0  0  0  0  0  0  0
   -2.9052   -0.0172   -2.2544 C   0  0  0  0  0  0  0  0  0  0  0  0
   -2.2705    0.1220   -3.4720 C   0  0  0  0  0  0  0  0  0  0  0  0
   -3.3107    0.2157   -5.0549 Br  0  0  0  0  0  0  0  0  0  0  0  0
   -0.8762    0.1822   -3.5679 C   0  0  0  0  0  0  0  0  0  0  0  0
   -0.1157    0.1239   -2.4214 C   0  0  0  0  0  0  0  0  0  0  0  0
   -0.4763   -0.0661    0.9026 H   0  0  0  0  0  0  0  0  0  0  0  0
    1.8695   -0.8143   -0.6246 H   0  0  0  0  0  0  0  0  0  0  0  0
    1.8315   -0.1451    1.0295 H   0  0  0  0  0  0  0  0  0  0  0  0
    1.8567    0.9628   -0.3723 H   0  0  0  0  0  0  0  0  0  0  0  0
   -2.9392   -3.8133   -2.5704 H   0  0  0  0  0  0  0  0  0  0  0  0
   -4.6514   -3.3466   -2.8779 H   0  0  0  0  0  0  0  0  0  0  0  0
   -4.2448   -4.4637   -1.5103 H   0  0  0  0  0  0  0  0  0  0  0  0
   -6.2526   -3.2843   -1.1196 H   0  0  0  0  0  0  0  0  0  0  0  0
   -7.9119   -2.1119    0.2869 H   0  0  0  0  0  0  0  0  0  0  0  0
   -7.2413   -0.1537    1.6518 H   0  0  0  0  0  0  0  0  0  0  0  0
   -4.8846    0.6485    1.6143 H   0  0  0  0  0  0  0  0  0  0  0  0
   -3.9988   -0.0551   -2.1976 H   0  0  0  0  0  0  0  0  0  0  0  0
   -0.3892    0.2804   -4.5409 H   0  0  0  0  0  0  0  0  0  0  0  0
    0.9652    0.1811   -2.4892 H   0  0  0  0  0  0  0  0  0  0  0  0
  1 20  1  0  0  0  0
  2  1  1  0  0  0  0
  2 22  1  0  0  0  0
  3  4  1  0  0  0  0
  3  1  1  0  0  0  0
  4  5  1  0  0  0  0
  5  6  2  0  0  0  0
  7  5  1  0  0  0  0
  7 14  2  0  0  0  0
  8 11  2  0  0  0  0
  8  7  1  0  0  0  0
  9  8  1  0  0  0  0
 10 26  1  0  0  0  0
 10  9  1  0  0  0  0
 11 12  1  0  0  0  0
 12 28  1  0  0  0  0
 12 13  2  0  0  0  0
 13 29  1  0  0  0  0
 14 13  1  0  0  0  0
 14 30  1  0  0  0  0
 15 31  1  0  0  0  0
 15  4  2  0  0  0  0
 16 15  1  0  0  0  0
 17 16  1  0  0  0  0
 18 16  2  0  0  0  0
 18 19  1  0  0  0  0
 19  3  2  0  0  0  0
 21  2  1  0  0  0  0
 23  2  1  0  0  0  0
 24 10  1  0  0  0  0
 25 10  1  0  0  0  0
 27 11  1  0  0  0  0
 32 18  1  0  0  0  0
 33 19  1  0  0  0  0
M  END
$$$$
