44
rmsd40.gzmat
S          0.00000        0.00000        0.00000
O          1.45100        0.00000        0.00000
O         -0.73110        0.00000       -1.25470
C         -0.54720        1.38030        0.94720
C          0.37070        2.13970        1.66870
C         -0.06740        3.20050        2.45860
C         -1.42730        3.51120        2.51920
C         -2.34290        2.76360        1.77120
C         -1.90200        1.70550        0.98260
C         -1.91090        4.62640        3.38090
C         -0.55790       -1.42180        0.90230
C         -1.40170       -2.31180        0.23840
C         -1.86920       -3.46720        0.86440
C         -1.48790       -3.73540        2.18790
C         -0.65240       -2.84040        2.85280
C         -0.18160       -1.68590        2.21810
C          0.68710       -0.80270        3.01260
C          0.15070       -0.14240        4.12260
C          0.96290        0.67290        4.90540
C          2.31200        0.82560        4.58570
C          2.84710        0.16360        3.48270
C          2.03800       -0.65360        2.69500
C         -1.96200       -4.96090        2.89080
C         -2.75150       -4.40660        0.11520
H          1.44330        1.90740        1.63120
H          0.65130        3.78020        3.03180
H         -3.40050        3.01070        1.80450
H         -2.63110        1.14440        0.38970
H         -2.37690        4.23750        4.29980
H         -2.66620        5.24100        2.86970
H         -1.10540        5.30500        3.69270
H         -1.71030       -2.11320       -0.79770
H         -0.35140       -3.04140        3.87990
H         -0.90290       -0.26200        4.36780
H          0.54540        1.19220        5.76390
H          2.94540        1.46240        5.19860
H          3.89830        0.28560        3.22930
H          2.45830       -1.16020        1.82010
H         -1.54050       -5.06470        3.90030
H         -1.69070       -5.87130        2.33460
H         -3.05690       -4.96130        3.00180
H         -3.09930       -3.99050       -0.84060
H         -3.64980       -4.67410        0.68910
H         -2.22370       -5.34400       -0.11850
