
     RDKit          3D

 44 46  0  0  0  0  0  0  0  0999 V2000
    0.0853   -0.0461   -0.0510 S   0  0  0  0  0  0  0  0  0  0  0  0
    1.5538   -0.0196    0.0451 O   0  0  0  0  0  0  0  0  0  0  0  0
   -0.5621   -0.0542   -1.3731 O   0  0  0  0  0  0  0  0  0  0  0  0
   -0.5586    1.3441    0.8768 C   0  0  0  0  0  0  0  0  0  0  0  0
   -0.1429    1.5336    2.1947 C   0  0  0  0  0  0  0  0  0  0  0  0
   -0.6863    2.5883    2.9269 C   0  0  0  0  0  0  0  0  0  0  0  0
   -1.6255    3.4604    2.3525 C   0  0  0  0  0  0  0  0  0  0  0  0
   -1.9945    3.2611    1.0127 C   0  0  0  0  0  0  0  0  0  0  0  0
   -1.4671    2.2079    0.2692 C   0  0  0  0  0  0  0  0  0  0  0  0
   -2.2500    4.5704    3.1568 C   0  0  0  0  0  0  0  0  0  0  0  0
   -0.4628   -1.4827    0.9024 C   0  0  0  0  0  0  0  0  0  0  0  0
    0.5293   -2.4136    1.2154 C   0  0  0  0  0  0  0  0  0  0  0  0
    0.2401   -3.5571    1.9646 C   0  0  0  0  0  0  0  0  0  0  0  0
   -1.0820   -3.7475    2.4252 C   0  0  0  0  0  0  0  0  0  0  0  0
   -2.0577   -2.7958    2.1080 C   0  0  0  0  0  0  0  0  0  0  0  0
   -1.7886   -1.6569    1.3343 C   0  0  0  0  0  0  0  0  0  0  0  0
   -2.8899   -0.6942    1.0534 C   0  0  0  0  0  0  0  0  0  0  0  0
   -3.3601   -0.4855   -0.2518 C   0  0  0  0  0  0  0  0  0  0  0  0
   -4.4022    0.4132   -0.4880 C   0  0  0  0  0  0  0  0  0  0  0  0
   -4.9814    1.1174    0.5709 C   0  0  0  0  0  0  0  0  0  0  0  0
   -4.5199    0.9121    1.8742 C   0  0  0  0  0  0  0  0  0  0  0  0
   -3.4869    0.0055    2.1143 C   0  0  0  0  0  0  0  0  0  0  0  0
   -1.4380   -4.9578    3.2465 C   0  0  0  0  0  0  0  0  0  0  0  0
    1.3207   -4.5562    2.2829 C   0  0  0  0  0  0  0  0  0  0  0  0
    0.5884    0.8576    2.6419 H   0  0  0  0  0  0  0  0  0  0  0  0
   -0.3760    2.7401    3.9640 H   0  0  0  0  0  0  0  0  0  0  0  0
   -2.7205    3.9333    0.5484 H   0  0  0  0  0  0  0  0  0  0  0  0
   -1.7672    2.0271   -0.7627 H   0  0  0  0  0  0  0  0  0  0  0  0
   -3.2935    4.3218    3.4167 H   0  0  0  0  0  0  0  0  0  0  0  0
   -2.2754    5.5132    2.5884 H   0  0  0  0  0  0  0  0  0  0  0  0
   -1.7060    4.7488    4.0956 H   0  0  0  0  0  0  0  0  0  0  0  0
    1.5476   -2.2157    0.8760 H   0  0  0  0  0  0  0  0  0  0  0  0
   -3.0810   -2.9450    2.4614 H   0  0  0  0  0  0  0  0  0  0  0  0
   -2.8872   -1.0103   -1.0812 H   0  0  0  0  0  0  0  0  0  0  0  0
   -4.7591    0.5678   -1.5091 H   0  0  0  0  0  0  0  0  0  0  0  0
   -5.7905    1.8268    0.3809 H   0  0  0  0  0  0  0  0  0  0  0  0
   -4.9629    1.4632    2.7072 H   0  0  0  0  0  0  0  0  0  0  0  0
   -3.1135   -0.1449    3.1295 H   0  0  0  0  0  0  0  0  0  0  0  0
   -2.5004   -4.9554    3.5276 H   0  0  0  0  0  0  0  0  0  0  0  0
   -0.8402   -5.0054    4.1721 H   0  0  0  0  0  0  0  0  0  0  0  0
   -1.2340   -5.8906    2.6948 H   0  0  0  0  0  0  0  0  0  0  0  0
    2.2861   -4.2481    1.8581 H   0  0  0  0  0  0  0  0  0  0  0  0
    1.0767   -5.5544    1.8821 H   0  0  0  0  0  0  0  0  0  0  0  0
    1.4511   -4.6785    3.3713 H   0  0  0  0  0  0  0  0  0  0  0  0
  1  2  2  0
  1  3  2  0
  1  4  1  0
  1 11  1  0
  4  5  2  0
  4  9  1  0
  5  6  1  0
  5 25  1  0
  6  7  2  0
  6 26  1  0
  7  8  1  0
  7 10  1  0
  8  9  2  0
  8 27  1  0
  9 28  1  0
 10 29  1  0
 10 30  1  0
 10 31  1  0
 11 12  2  0
 11 16  1  0
 12 13  1  0
 12 32  1  0
 13 14  2  0
 13 24  1  0
 14 15  1  0
 14 23  1  0
 15 16  2  0
 15 33  1  0
 16 17  1  0
 17 18  2  0
 17 22  1  0
 18 19  1  0
 18 34  1  0
 19 20  2  0
 19 35  1  0
 20 21  1  0
 20 36  1  0
 21 22  2  0
 21 37  1  0
 22 38  1  0
 23 39  1  0
 23 40  1  0
 23 41  1  0
 24 42  1  0
 24 43  1  0
 24 44  1  0
M  END

