rmsd27.gzmat
 OpenBabel08211713393D

 44 46  0  0  0  0  0  0  0  0999 V2000
    0.0000    0.0000    0.0000 S   0  0  0  0  0  0  0  0  0  0  0  0
    1.4520    0.0000    0.0000 O   0  0  0  0  0  0  0  0  0  0  0  0
   -0.7296    0.0000   -1.2546 O   0  0  0  0  0  0  0  0  0  0  0  0
   -0.5453    1.3854    0.9419 C   0  0  0  0  0  0  0  0  0  0  0  0
    0.0656    1.6933    2.1554 C   0  0  0  0  0  0  0  0  0  0  0  0
   -0.3913    2.7690    2.9125 C   0  0  0  0  0  0  0  0  0  0  0  0
   -1.4542    3.5504    2.4510 C   0  0  0  0  0  0  0  0  0  0  0  0
   -2.0461    3.2557    1.2197 C   0  0  0  0  0  0  0  0  0  0  0  0
   -1.5907    2.1762    0.4674 C   0  0  0  0  0  0  0  0  0  0  0  0
   -1.9504    4.7021    3.2562 C   0  0  0  0  0  0  0  0  0  0  0  0
   -0.4956   -1.4241    0.9329 C   0  0  0  0  0  0  0  0  0  0  0  0
    0.4998   -2.3372    1.2803 C   0  0  0  0  0  0  0  0  0  0  0  0
    0.1998   -3.4896    2.0062 C   0  0  0  0  0  0  0  0  0  0  0  0
   -1.1246   -3.7271    2.4043 C   0  0  0  0  0  0  0  0  0  0  0  0
   -2.1176   -2.8145    2.0547 C   0  0  0  0  0  0  0  0  0  0  0  0
   -1.8144   -1.6678    1.3118 C   0  0  0  0  0  0  0  0  0  0  0  0
   -2.9390   -0.7777    0.9810 C   0  0  0  0  0  0  0  0  0  0  0  0
   -3.3644   -0.6300   -0.3405 C   0  0  0  0  0  0  0  0  0  0  0  0
   -4.4619    0.1796   -0.6279 C   0  0  0  0  0  0  0  0  0  0  0  0
   -5.1345    0.8388    0.3988 C   0  0  0  0  0  0  0  0  0  0  0  0
   -4.7094    0.6914    1.7191 C   0  0  0  0  0  0  0  0  0  0  0  0
   -3.6152   -0.1176    2.0120 C   0  0  0  0  0  0  0  0  0  0  0  0
   -1.4831   -4.9410    3.1906 C   0  0  0  0  0  0  0  0  0  0  0  0
    1.2843   -4.4569    2.3379 C   0  0  0  0  0  0  0  0  0  0  0  0
    0.9104    1.1049    2.5259 H   0  0  0  0  0  0  0  0  0  0  0  0
    0.0825    3.0017    3.8623 H   0  0  0  0  0  0  0  0  0  0  0  0
   -2.8661    3.8657    0.8499 H   0  0  0  0  0  0  0  0  0  0  0  0
   -2.0709    1.9527   -0.4948 H   0  0  0  0  0  0  0  0  0  0  0  0
   -3.0488    4.7507    3.2708 H   0  0  0  0  0  0  0  0  0  0  0  0
   -1.5913    5.6563    2.8389 H   0  0  0  0  0  0  0  0  0  0  0  0
   -1.6177    4.6652    4.3024 H   0  0  0  0  0  0  0  0  0  0  0  0
    1.5426   -2.1583    0.9820 H   0  0  0  0  0  0  0  0  0  0  0  0
   -3.1491   -2.9943    2.3542 H   0  0  0  0  0  0  0  0  0  0  0  0
   -2.8287   -1.1336   -1.1520 H   0  0  0  0  0  0  0  0  0  0  0  0
   -4.7893    0.2964   -1.6591 H   0  0  0  0  0  0  0  0  0  0  0  0
   -5.9909    1.4693    0.1717 H   0  0  0  0  0  0  0  0  0  0  0  0
   -5.2318    1.2092    2.5196 H   0  0  0  0  0  0  0  0  0  0  0  0
   -3.2815   -0.2327    3.0417 H   0  0  0  0  0  0  0  0  0  0  0  0
   -2.5424   -4.9626    3.4816 H   0  0  0  0  0  0  0  0  0  0  0  0
   -0.8954   -5.0082    4.1185 H   0  0  0  0  0  0  0  0  0  0  0  0
   -1.2888   -5.8602    2.6165 H   0  0  0  0  0  0  0  0  0  0  0  0
    2.2789   -4.0973    2.0387 H   0  0  0  0  0  0  0  0  0  0  0  0
    1.1265   -5.4204    1.8301 H   0  0  0  0  0  0  0  0  0  0  0  0
    1.3327   -4.6645    3.4162 H   0  0  0  0  0  0  0  0  0  0  0  0
  1  2  2  0  0  0  0
  1 11  1  0  0  0  0
  1  4  1  0  0  0  0
  3  1  2  0  0  0  0
  4  5  1  0  0  0  0
  5 25  1  0  0  0  0
  5  6  2  0  0  0  0
  6 26  1  0  0  0  0
  7  6  1  0  0  0  0
  7 10  1  0  0  0  0
  8  7  2  0  0  0  0
  9  4  2  0  0  0  0
  9  8  1  0  0  0  0
 10 29  1  0  0  0  0
 10 31  1  0  0  0  0
 11 12  2  0  0  0  0
 11 16  1  0  0  0  0
 12 13  1  0  0  0  0
 13 24  1  0  0  0  0
 13 14  2  0  0  0  0
 14 23  1  0  0  0  0
 15 33  1  0  0  0  0
 15 14  1  0  0  0  0
 16 15  2  0  0  0  0
 17 16  1  0  0  0  0
 17 22  2  0  0  0  0
 18 17  1  0  0  0  0
 19 18  2  0  0  0  0
 19 20  1  0  0  0  0
 20 21  2  0  0  0  0
 21 22  1  0  0  0  0
 21 37  1  0  0  0  0
 22 38  1  0  0  0  0
 23 39  1  0  0  0  0
 23 40  1  0  0  0  0
 24 44  1  0  0  0  0
 27  8  1  0  0  0  0
 28  9  1  0  0  0  0
 30 10  1  0  0  0  0
 32 12  1  0  0  0  0
 34 18  1  0  0  0  0
 35 19  1  0  0  0  0
 36 20  1  0  0  0  0
 41 23  1  0  0  0  0
 42 24  1  0  0  0  0
 43 24  1  0  0  0  0
M  END
$$$$
