44
rmsd38.gzmat
S          0.00000        0.00000        0.00000
O          1.45200        0.00000        0.00000
O         -0.73090        0.00000       -1.25370
C         -0.54400        1.38810        0.93950
C          0.06300        1.69660        2.15560
C         -0.39450        2.77370        2.90880
C         -1.45650        3.55610        2.44310
C         -2.04220        3.26220        1.21010
C         -1.58340        2.18160        0.45970
C         -1.94470        4.70530        3.25620
C         -0.49500       -1.42850        0.92660
C          0.49880       -2.34590        1.26540
C          0.19650       -3.50560        1.97840
C         -1.13100       -3.75420        2.35870
C         -2.12290       -2.83590        2.01930
C         -1.81440       -1.67510        1.30260
C         -2.92690       -0.76030        0.99980
C         -3.37580       -0.58980       -0.31100
C         -4.44460        0.26680       -0.56940
C         -5.06360        0.95070        0.47480
C         -4.61740        0.77650        1.78460
C         -3.55450       -0.08230        2.04910
C         -1.49210       -4.98500        3.11750
C          1.28560       -4.46150        2.32720
H          0.90560        1.10710        2.52890
H          0.07670        3.01000        3.85930
H         -2.86050        3.87000        0.83350
H         -2.05950        1.96090       -0.50520
H         -2.01730        4.45380        4.32400
H         -2.93650        5.05850        2.94300
H         -1.25840        5.56270        3.17250
H          1.54250       -2.16430        0.97210
H         -3.15630       -3.02210        2.30820
H         -2.87810       -1.10870       -1.13630
H         -4.78960        0.40450       -1.59230
H         -5.89270        1.62350        0.26920
H         -5.09560        1.31510        2.59860
H         -3.20490       -0.22010        3.07050
H         -2.55720       -5.02540        3.38290
H         -0.92390       -5.06040        4.05660
H         -1.27320       -5.89260        2.53370
H          2.26230       -4.15580        1.92590
H          1.08210       -5.46830        1.93360
H          1.40310       -4.55560        3.41660
