rmsd22.gzmat
 OpenBabel08211713393D

 44 46  0  0  0  0  0  0  0  0999 V2000
    0.0000    0.0000    0.0000 S   0  0  0  0  0  0  0  0  0  0  0  0
    1.4513    0.0000    0.0000 O   0  0  0  0  0  0  0  0  0  0  0  0
   -0.7298    0.0000   -1.2554 O   0  0  0  0  0  0  0  0  0  0  0  0
   -0.5400    1.3862    0.9438 C   0  0  0  0  0  0  0  0  0  0  0  0
    0.3955    2.1852    1.5983 C   0  0  0  0  0  0  0  0  0  0  0  0
   -0.0260    3.2651    2.3698 C   0  0  0  0  0  0  0  0  0  0  0  0
   -1.3884    3.5528    2.4859 C   0  0  0  0  0  0  0  0  0  0  0  0
   -2.3222    2.7642    1.8077 C   0  0  0  0  0  0  0  0  0  0  0  0
   -1.8971    1.6876    1.0336 C   0  0  0  0  0  0  0  0  0  0  0  0
   -1.8382    4.6896    3.3379 C   0  0  0  0  0  0  0  0  0  0  0  0
   -0.5550   -1.4253    0.8972 C   0  0  0  0  0  0  0  0  0  0  0  0
   -1.3671   -2.3319    0.2166 C   0  0  0  0  0  0  0  0  0  0  0  0
   -1.8353   -3.4884    0.8395 C   0  0  0  0  0  0  0  0  0  0  0  0
   -1.4821   -3.7431    2.1734 C   0  0  0  0  0  0  0  0  0  0  0  0
   -0.6707   -2.8357    2.8521 C   0  0  0  0  0  0  0  0  0  0  0  0
   -0.2024   -1.6775    2.2220 C   0  0  0  0  0  0  0  0  0  0  0  0
    0.6380   -0.7740    3.0245 C   0  0  0  0  0  0  0  0  0  0  0  0
    0.0724   -0.1077    4.1162 C   0  0  0  0  0  0  0  0  0  0  0  0
    0.8568    0.7326    4.9009 C   0  0  0  0  0  0  0  0  0  0  0  0
    2.2079    0.9062    4.6018 C   0  0  0  0  0  0  0  0  0  0  0  0
    2.7723    0.2377    3.5175 C   0  0  0  0  0  0  0  0  0  0  0  0
    1.9916   -0.6046    2.7278 C   0  0  0  0  0  0  0  0  0  0  0  0
   -1.9586   -4.9722    2.8680 C   0  0  0  0  0  0  0  0  0  0  0  0
   -2.7011   -4.4371    0.0828 C   0  0  0  0  0  0  0  0  0  0  0  0
    1.4698    1.9701    1.5219 H   0  0  0  0  0  0  0  0  0  0  0  0
    0.7070    3.8793    2.8860 H   0  0  0  0  0  0  0  0  0  0  0  0
   -3.3821    2.9926    1.8812 H   0  0  0  0  0  0  0  0  0  0  0  0
   -2.6432    1.0931    0.4975 H   0  0  0  0  0  0  0  0  0  0  0  0
   -1.8413    4.4037    4.4015 H   0  0  0  0  0  0  0  0  0  0  0  0
   -2.8541    5.0282    3.0925 H   0  0  0  0  0  0  0  0  0  0  0  0
   -1.1790    5.5644    3.2415 H   0  0  0  0  0  0  0  0  0  0  0  0
   -1.6506   -2.1440   -0.8289 H   0  0  0  0  0  0  0  0  0  0  0  0
   -0.3884   -3.0283    3.8861 H   0  0  0  0  0  0  0  0  0  0  0  0
   -0.9828   -0.2416    4.3462 H   0  0  0  0  0  0  0  0  0  0  0  0
    0.4151    1.2562    5.7447 H   0  0  0  0  0  0  0  0  0  0  0  0
    2.8197    1.5635    5.2152 H   0  0  0  0  0  0  0  0  0  0  0  0
    3.8249    0.3760    3.2788 H   0  0  0  0  0  0  0  0  0  0  0  0
    2.4358   -1.1131    1.8657 H   0  0  0  0  0  0  0  0  0  0  0  0
   -1.6757   -5.0007    3.9290 H   0  0  0  0  0  0  0  0  0  0  0  0
   -1.5425   -5.8784    2.4008 H   0  0  0  0  0  0  0  0  0  0  0  0
   -3.0543   -5.0610    2.8256 H   0  0  0  0  0  0  0  0  0  0  0  0
   -2.8448   -4.1371   -0.9651 H   0  0  0  0  0  0  0  0  0  0  0  0
   -3.7020   -4.5146    0.5321 H   0  0  0  0  0  0  0  0  0  0  0  0
   -2.2730   -5.4502    0.0670 H   0  0  0  0  0  0  0  0  0  0  0  0
  1 11  1  0  0  0  0
  1  4  1  0  0  0  0
  2  1  2  0  0  0  0
  3  1  2  0  0  0  0
  4  9  2  0  0  0  0
  4  5  1  0  0  0  0
  5  6  2  0  0  0  0
  6  7  1  0  0  0  0
  6 26  1  0  0  0  0
  7 10  1  0  0  0  0
  8 27  1  0  0  0  0
  8  7  2  0  0  0  0
  9  8  1  0  0  0  0
 10 29  1  0  0  0  0
 11 16  2  0  0  0  0
 12 13  2  0  0  0  0
 12 11  1  0  0  0  0
 13 14  1  0  0  0  0
 14 15  2  0  0  0  0
 14 23  1  0  0  0  0
 15 33  1  0  0  0  0
 16 15  1  0  0  0  0
 16 17  1  0  0  0  0
 17 18  1  0  0  0  0
 18 34  1  0  0  0  0
 18 19  2  0  0  0  0
 19 35  1  0  0  0  0
 20 19  1  0  0  0  0
 20 36  1  0  0  0  0
 21 20  2  0  0  0  0
 22 17  2  0  0  0  0
 22 21  1  0  0  0  0
 23 39  1  0  0  0  0
 24 43  1  0  0  0  0
 24 13  1  0  0  0  0
 25  5  1  0  0  0  0
 28  9  1  0  0  0  0
 30 10  1  0  0  0  0
 31 10  1  0  0  0  0
 32 12  1  0  0  0  0
 37 21  1  0  0  0  0
 38 22  1  0  0  0  0
 40 23  1  0  0  0  0
 41 23  1  0  0  0  0
 42 24  1  0  0  0  0
 44 24  1  0  0  0  0
M  END
$$$$
