
     RDKit          3D

 44 46  0  0  0  0  0  0  0  0999 V2000
    0.0869   -0.0467   -0.0419 S   0  0  0  0  0  0  0  0  0  0  0  0
    1.5541   -0.0039    0.0669 O   0  0  0  0  0  0  0  0  0  0  0  0
   -0.5490   -0.0587   -1.3695 O   0  0  0  0  0  0  0  0  0  0  0  0
   -0.5802    1.3341    0.8836 C   0  0  0  0  0  0  0  0  0  0  0  0
   -0.1772    1.5254    2.2052 C   0  0  0  0  0  0  0  0  0  0  0  0
   -0.7378    2.5726    2.9351 C   0  0  0  0  0  0  0  0  0  0  0  0
   -1.6818    3.4357    2.3547 C   0  0  0  0  0  0  0  0  0  0  0  0
   -2.0378    3.2352    1.0117 C   0  0  0  0  0  0  0  0  0  0  0  0
   -1.4931    2.1893    0.2704 C   0  0  0  0  0  0  0  0  0  0  0  0
   -2.3245    4.5375    3.1562 C   0  0  0  0  0  0  0  0  0  0  0  0
   -0.4531   -1.4916    0.9034 C   0  0  0  0  0  0  0  0  0  0  0  0
    0.5467   -2.4121    1.2227 C   0  0  0  0  0  0  0  0  0  0  0  0
    0.2638   -3.5606    1.9666 C   0  0  0  0  0  0  0  0  0  0  0  0
   -1.0599   -3.7670    2.4154 C   0  0  0  0  0  0  0  0  0  0  0  0
   -2.0435   -2.8255    2.0921 C   0  0  0  0  0  0  0  0  0  0  0  0
   -1.7805   -1.6817    1.3235 C   0  0  0  0  0  0  0  0  0  0  0  0
   -2.8901   -0.7307    1.0355 C   0  0  0  0  0  0  0  0  0  0  0  0
   -3.3516   -0.5240   -0.2731 C   0  0  0  0  0  0  0  0  0  0  0  0
   -4.4016    0.3636   -0.5161 C   0  0  0  0  0  0  0  0  0  0  0  0
   -4.9974    1.0588    0.5396 C   0  0  0  0  0  0  0  0  0  0  0  0
   -4.5448    0.8554    1.8463 C   0  0  0  0  0  0  0  0  0  0  0  0
   -3.5038   -0.0403    2.0929 C   0  0  0  0  0  0  0  0  0  0  0  0
   -1.4094   -4.9832    3.2308 C   0  0  0  0  0  0  0  0  0  0  0  0
    1.3528   -4.5484    2.2918 C   0  0  0  0  0  0  0  0  0  0  0  0
    0.5578    0.8564    2.6569 H   0  0  0  0  0  0  0  0  0  0  0  0
   -0.4376    2.7257    3.9749 H   0  0  0  0  0  0  0  0  0  0  0  0
   -2.7674    3.9004    0.5429 H   0  0  0  0  0  0  0  0  0  0  0  0
   -1.7829    2.0073   -0.7642 H   0  0  0  0  0  0  0  0  0  0  0  0
   -3.3671    4.2771    3.4077 H   0  0  0  0  0  0  0  0  0  0  0  0
   -2.3558    5.4809    2.5891 H   0  0  0  0  0  0  0  0  0  0  0  0
   -1.7895    4.7202    4.0993 H   0  0  0  0  0  0  0  0  0  0  0  0
    1.5655   -2.2021    0.8925 H   0  0  0  0  0  0  0  0  0  0  0  0
   -3.0680   -2.9870    2.4364 H   0  0  0  0  0  0  0  0  0  0  0  0
   -2.8659   -1.0416   -1.0998 H   0  0  0  0  0  0  0  0  0  0  0  0
   -4.7515    0.5168   -1.5397 H   0  0  0  0  0  0  0  0  0  0  0  0
   -5.8128    1.7596    0.3444 H   0  0  0  0  0  0  0  0  0  0  0  0
   -5.0010    1.3995    2.6768 H   0  0  0  0  0  0  0  0  0  0  0  0
   -3.1374   -0.1891    3.1109 H   0  0  0  0  0  0  0  0  0  0  0  0
   -2.4739   -4.9928    3.5035 H   0  0  0  0  0  0  0  0  0  0  0  0
   -0.8183   -5.0270    4.1608 H   0  0  0  0  0  0  0  0  0  0  0  0
   -1.1912   -5.9123    2.6781 H   0  0  0  0  0  0  0  0  0  0  0  0
    2.3181   -4.2289    1.8755 H   0  0  0  0  0  0  0  0  0  0  0  0
    1.1231   -5.5484    1.8871 H   0  0  0  0  0  0  0  0  0  0  0  0
    1.4757   -4.6714    3.3810 H   0  0  0  0  0  0  0  0  0  0  0  0
  1  2  2  0
  1  3  2  0
  1  4  1  0
  1 11  1  0
  4  5  2  0
  4  9  1  0
  5  6  1  0
  5 25  1  0
  6  7  2  0
  6 26  1  0
  7  8  1  0
  7 10  1  0
  8  9  2  0
  8 27  1  0
  9 28  1  0
 10 29  1  0
 10 30  1  0
 10 31  1  0
 11 12  2  0
 11 16  1  0
 12 13  1  0
 12 32  1  0
 13 14  2  0
 13 24  1  0
 14 15  1  0
 14 23  1  0
 15 16  2  0
 15 33  1  0
 16 17  1  0
 17 18  2  0
 17 22  1  0
 18 19  1  0
 18 34  1  0
 19 20  2  0
 19 35  1  0
 20 21  1  0
 20 36  1  0
 21 22  2  0
 21 37  1  0
 22 38  1  0
 23 39  1  0
 23 40  1  0
 23 41  1  0
 24 42  1  0
 24 43  1  0
 24 44  1  0
M  END

