44
rmsd37.gzmat
S          0.00000        0.00000        0.00000
O          1.45220        0.00000        0.00000
O         -0.73120        0.00000       -1.25330
C         -0.54300        1.38030        0.94940
C          0.11580        1.71700        2.13090
C         -0.34630        2.77430        2.90830
C         -1.46430        3.50970        2.50000
C         -2.10020        3.19100        1.29860
C         -1.63640        2.13030        0.52360
C         -1.97400        4.61810        3.35560
C         -0.49800       -1.42310        0.93310
C          0.50270       -2.30610        1.33790
C          0.19580       -3.46490        2.05040
C         -1.14310       -3.74970        2.35910
C         -2.14050       -2.86190        1.96140
C         -1.82650       -1.69730        1.25220
C         -2.95100       -0.81550        0.89980
C         -3.36100       -0.67560       -0.42700
C         -4.45770        0.12970       -0.73000
C         -5.14290        0.79220        0.28620
C         -4.73120        0.65400        1.61150
C         -3.63900       -0.15170        1.92010
C         -1.51320       -4.98510        3.10560
C          1.28880       -4.38880        2.46700
H          1.00180        1.16380        2.45760
H          0.16200        3.02920        3.83430
H         -2.96420        3.76110        0.96790
H         -2.15130        1.89000       -0.41640
H         -2.40700        4.22620        4.28920
H         -2.75700        5.21160        2.86420
H         -1.17320        5.31720        3.63860
H          1.55490       -2.09810        1.09650
H         -3.18240       -3.07500        2.19700
H         -2.81340       -1.18050       -1.22940
H         -4.77330        0.24180       -1.76520
H         -5.99930        1.41820        0.04710
H         -5.26300        1.17520        2.40330
H         -3.31630       -0.26220        2.95360
H         -2.59860       -5.09240        3.23890
H         -1.06380       -4.99700        4.10990
H         -1.16360       -5.88950        2.58440
H          2.28730       -4.01240        2.20310
H          1.18370       -5.37420        1.98870
H          1.28770       -4.55350        3.55420
