rmsd38.gzmat
 OpenBabel08211713393D

 44 46  0  0  0  0  0  0  0  0999 V2000
    0.0000    0.0000    0.0000 S   0  0  0  0  0  0  0  0  0  0  0  0
    1.4520    0.0000    0.0000 O   0  0  0  0  0  0  0  0  0  0  0  0
   -0.7309    0.0000   -1.2537 O   0  0  0  0  0  0  0  0  0  0  0  0
   -0.5440    1.3881    0.9395 C   0  0  0  0  0  0  0  0  0  0  0  0
    0.0630    1.6966    2.1556 C   0  0  0  0  0  0  0  0  0  0  0  0
   -0.3945    2.7737    2.9088 C   0  0  0  0  0  0  0  0  0  0  0  0
   -1.4565    3.5561    2.4431 C   0  0  0  0  0  0  0  0  0  0  0  0
   -2.0422    3.2622    1.2101 C   0  0  0  0  0  0  0  0  0  0  0  0
   -1.5834    2.1816    0.4597 C   0  0  0  0  0  0  0  0  0  0  0  0
   -1.9447    4.7053    3.2562 C   0  0  0  0  0  0  0  0  0  0  0  0
   -0.4950   -1.4285    0.9266 C   0  0  0  0  0  0  0  0  0  0  0  0
    0.4988   -2.3459    1.2654 C   0  0  0  0  0  0  0  0  0  0  0  0
    0.1965   -3.5056    1.9784 C   0  0  0  0  0  0  0  0  0  0  0  0
   -1.1310   -3.7542    2.3587 C   0  0  0  0  0  0  0  0  0  0  0  0
   -2.1229   -2.8359    2.0193 C   0  0  0  0  0  0  0  0  0  0  0  0
   -1.8144   -1.6751    1.3026 C   0  0  0  0  0  0  0  0  0  0  0  0
   -2.9269   -0.7603    0.9998 C   0  0  0  0  0  0  0  0  0  0  0  0
   -3.3758   -0.5898   -0.3110 C   0  0  0  0  0  0  0  0  0  0  0  0
   -4.4446    0.2668   -0.5694 C   0  0  0  0  0  0  0  0  0  0  0  0
   -5.0636    0.9507    0.4748 C   0  0  0  0  0  0  0  0  0  0  0  0
   -4.6174    0.7765    1.7846 C   0  0  0  0  0  0  0  0  0  0  0  0
   -3.5545   -0.0823    2.0491 C   0  0  0  0  0  0  0  0  0  0  0  0
   -1.4921   -4.9850    3.1175 C   0  0  0  0  0  0  0  0  0  0  0  0
    1.2856   -4.4615    2.3272 C   0  0  0  0  0  0  0  0  0  0  0  0
    0.9056    1.1071    2.5289 H   0  0  0  0  0  0  0  0  0  0  0  0
    0.0767    3.0100    3.8593 H   0  0  0  0  0  0  0  0  0  0  0  0
   -2.8605    3.8700    0.8335 H   0  0  0  0  0  0  0  0  0  0  0  0
   -2.0595    1.9609   -0.5052 H   0  0  0  0  0  0  0  0  0  0  0  0
   -2.0173    4.4538    4.3240 H   0  0  0  0  0  0  0  0  0  0  0  0
   -2.9365    5.0585    2.9430 H   0  0  0  0  0  0  0  0  0  0  0  0
   -1.2584    5.5627    3.1725 H   0  0  0  0  0  0  0  0  0  0  0  0
    1.5425   -2.1643    0.9721 H   0  0  0  0  0  0  0  0  0  0  0  0
   -3.1563   -3.0221    2.3082 H   0  0  0  0  0  0  0  0  0  0  0  0
   -2.8781   -1.1087   -1.1363 H   0  0  0  0  0  0  0  0  0  0  0  0
   -4.7896    0.4045   -1.5923 H   0  0  0  0  0  0  0  0  0  0  0  0
   -5.8927    1.6235    0.2692 H   0  0  0  0  0  0  0  0  0  0  0  0
   -5.0956    1.3151    2.5986 H   0  0  0  0  0  0  0  0  0  0  0  0
   -3.2049   -0.2201    3.0705 H   0  0  0  0  0  0  0  0  0  0  0  0
   -2.5572   -5.0254    3.3829 H   0  0  0  0  0  0  0  0  0  0  0  0
   -0.9239   -5.0604    4.0566 H   0  0  0  0  0  0  0  0  0  0  0  0
   -1.2732   -5.8926    2.5337 H   0  0  0  0  0  0  0  0  0  0  0  0
    2.2623   -4.1558    1.9259 H   0  0  0  0  0  0  0  0  0  0  0  0
    1.0821   -5.4683    1.9336 H   0  0  0  0  0  0  0  0  0  0  0  0
    1.4031   -4.5556    3.4166 H   0  0  0  0  0  0  0  0  0  0  0  0
  1 11  1  0  0  0  0
  1  4  1  0  0  0  0
  2  1  2  0  0  0  0
  3  1  2  0  0  0  0
  4  5  1  0  0  0  0
  5 25  1  0  0  0  0
  5  6  2  0  0  0  0
  6 26  1  0  0  0  0
  7  6  1  0  0  0  0
  7 10  1  0  0  0  0
  8  7  2  0  0  0  0
  9  4  2  0  0  0  0
  9  8  1  0  0  0  0
 10 29  1  0  0  0  0
 11 12  2  0  0  0  0
 11 16  1  0  0  0  0
 12 13  1  0  0  0  0
 13 24  1  0  0  0  0
 13 14  2  0  0  0  0
 14 23  1  0  0  0  0
 15 33  1  0  0  0  0
 15 14  1  0  0  0  0
 16 15  2  0  0  0  0
 17 16  1  0  0  0  0
 17 22  2  0  0  0  0
 18 17  1  0  0  0  0
 19 18  2  0  0  0  0
 19 20  1  0  0  0  0
 20 21  2  0  0  0  0
 21 22  1  0  0  0  0
 21 37  1  0  0  0  0
 22 38  1  0  0  0  0
 23 39  1  0  0  0  0
 23 40  1  0  0  0  0
 24 44  1  0  0  0  0
 27  8  1  0  0  0  0
 28  9  1  0  0  0  0
 30 10  1  0  0  0  0
 31 10  1  0  0  0  0
 32 12  1  0  0  0  0
 34 18  1  0  0  0  0
 35 19  1  0  0  0  0
 36 20  1  0  0  0  0
 41 23  1  0  0  0  0
 42 24  1  0  0  0  0
 43 24  1  0  0  0  0
M  END
$$$$
