
     RDKit          3D

 44 46  0  0  0  0  0  0  0  0999 V2000
   -0.0188   -0.0333   -0.0829 S   0  0  0  0  0  0  0  0  0  0  0  0
    1.4497   -0.0463   -0.1849 O   0  0  0  0  0  0  0  0  0  0  0  0
   -0.8376   -0.0033   -1.3055 O   0  0  0  0  0  0  0  0  0  0  0  0
   -0.4945    1.3581    0.9399 C   0  0  0  0  0  0  0  0  0  0  0  0
    0.4897    2.2167    1.4247 C   0  0  0  0  0  0  0  0  0  0  0  0
    0.1140    3.2706    2.2543 C   0  0  0  0  0  0  0  0  0  0  0  0
   -1.2300    3.4758    2.6040 C   0  0  0  0  0  0  0  0  0  0  0  0
   -2.2009    2.6090    2.0759 C   0  0  0  0  0  0  0  0  0  0  0  0
   -1.8429    1.5537    1.2382 C   0  0  0  0  0  0  0  0  0  0  0  0
   -1.6099    4.5864    3.5481 C   0  0  0  0  0  0  0  0  0  0  0  0
   -0.5744   -1.4684    0.8685 C   0  0  0  0  0  0  0  0  0  0  0  0
   -1.3467   -2.3955    0.1664 C   0  0  0  0  0  0  0  0  0  0  0  0
   -1.8551   -3.5371    0.7917 C   0  0  0  0  0  0  0  0  0  0  0  0
   -1.5919   -3.7293    2.1665 C   0  0  0  0  0  0  0  0  0  0  0  0
   -0.8239   -2.7815    2.8521 C   0  0  0  0  0  0  0  0  0  0  0  0
   -0.2841   -1.6447    2.2320 C   0  0  0  0  0  0  0  0  0  0  0  0
    0.5158   -0.6865    3.0447 C   0  0  0  0  0  0  0  0  0  0  0  0
   -0.0986    0.0136    4.0953 C   0  0  0  0  0  0  0  0  0  0  0  0
    0.6316    0.9159    4.8695 C   0  0  0  0  0  0  0  0  0  0  0  0
    1.9911    1.1165    4.6138 C   0  0  0  0  0  0  0  0  0  0  0  0
    2.6128    0.4118    3.5796 C   0  0  0  0  0  0  0  0  0  0  0  0
    1.8813   -0.4826    2.7957 C   0  0  0  0  0  0  0  0  0  0  0  0
   -2.1297   -4.9374    2.8857 C   0  0  0  0  0  0  0  0  0  0  0  0
   -2.6767   -4.5321    0.0158 C   0  0  0  0  0  0  0  0  0  0  0  0
    1.5327    2.0313    1.1691 H   0  0  0  0  0  0  0  0  0  0  0  0
    0.8820    3.9386    2.6524 H   0  0  0  0  0  0  0  0  0  0  0  0
   -3.2536    2.7656    2.3252 H   0  0  0  0  0  0  0  0  0  0  0  0
   -2.5988    0.8819    0.8270 H   0  0  0  0  0  0  0  0  0  0  0  0
   -1.3180    4.3337    4.5821 H   0  0  0  0  0  0  0  0  0  0  0  0
   -2.6937    4.7720    3.5435 H   0  0  0  0  0  0  0  0  0  0  0  0
   -1.0979    5.5264    3.2893 H   0  0  0  0  0  0  0  0  0  0  0  0
   -1.5626   -2.1962   -0.8847 H   0  0  0  0  0  0  0  0  0  0  0  0
   -0.6174   -2.9322    3.9147 H   0  0  0  0  0  0  0  0  0  0  0  0
   -1.1644   -0.1332    4.2827 H   0  0  0  0  0  0  0  0  0  0  0  0
    0.1363    1.4674    5.6722 H   0  0  0  0  0  0  0  0  0  0  0  0
    2.5648    1.8224    5.2192 H   0  0  0  0  0  0  0  0  0  0  0  0
    3.6755    0.5626    3.3753 H   0  0  0  0  0  0  0  0  0  0  0  0
    2.3588   -1.0078    1.9691 H   0  0  0  0  0  0  0  0  0  0  0  0
   -1.8418   -4.9359    3.9463 H   0  0  0  0  0  0  0  0  0  0  0  0
   -1.7574   -5.8717    2.4333 H   0  0  0  0  0  0  0  0  0  0  0  0
   -3.2303   -4.9809    2.8309 H   0  0  0  0  0  0  0  0  0  0  0  0
   -2.7901   -4.2240   -1.0328 H   0  0  0  0  0  0  0  0  0  0  0  0
   -3.6851   -4.6484    0.4474 H   0  0  0  0  0  0  0  0  0  0  0  0
   -2.2132   -5.5329    0.0273 H   0  0  0  0  0  0  0  0  0  0  0  0
  1  2  2  0
  1  3  2  0
  1  4  1  0
  1 11  1  0
  4  5  2  0
  4  9  1  0
  5  6  1  0
  5 25  1  0
  6  7  2  0
  6 26  1  0
  7  8  1  0
  7 10  1  0
  8  9  2  0
  8 27  1  0
  9 28  1  0
 10 29  1  0
 10 30  1  0
 10 31  1  0
 11 12  2  0
 11 16  1  0
 12 13  1  0
 12 32  1  0
 13 14  2  0
 13 24  1  0
 14 15  1  0
 14 23  1  0
 15 16  2  0
 15 33  1  0
 16 17  1  0
 17 18  2  0
 17 22  1  0
 18 19  1  0
 18 34  1  0
 19 20  2  0
 19 35  1  0
 20 21  1  0
 20 36  1  0
 21 22  2  0
 21 37  1  0
 22 38  1  0
 23 39  1  0
 23 40  1  0
 23 41  1  0
 24 42  1  0
 24 43  1  0
 24 44  1  0
M  END

