rmsd40.gzmat
 OpenBabel08211713393D

 44 46  0  0  0  0  0  0  0  0999 V2000
    0.0000    0.0000    0.0000 S   0  0  0  0  0  0  0  0  0  0  0  0
    1.4510    0.0000    0.0000 O   0  0  0  0  0  0  0  0  0  0  0  0
   -0.7311    0.0000   -1.2547 O   0  0  0  0  0  0  0  0  0  0  0  0
   -0.5472    1.3803    0.9472 C   0  0  0  0  0  0  0  0  0  0  0  0
    0.3707    2.1397    1.6687 C   0  0  0  0  0  0  0  0  0  0  0  0
   -0.0674    3.2005    2.4586 C   0  0  0  0  0  0  0  0  0  0  0  0
   -1.4273    3.5112    2.5192 C   0  0  0  0  0  0  0  0  0  0  0  0
   -2.3429    2.7636    1.7712 C   0  0  0  0  0  0  0  0  0  0  0  0
   -1.9020    1.7055    0.9826 C   0  0  0  0  0  0  0  0  0  0  0  0
   -1.9109    4.6264    3.3809 C   0  0  0  0  0  0  0  0  0  0  0  0
   -0.5579   -1.4218    0.9023 C   0  0  0  0  0  0  0  0  0  0  0  0
   -1.4017   -2.3118    0.2384 C   0  0  0  0  0  0  0  0  0  0  0  0
   -1.8692   -3.4672    0.8644 C   0  0  0  0  0  0  0  0  0  0  0  0
   -1.4879   -3.7354    2.1879 C   0  0  0  0  0  0  0  0  0  0  0  0
   -0.6524   -2.8404    2.8528 C   0  0  0  0  0  0  0  0  0  0  0  0
   -0.1816   -1.6859    2.2181 C   0  0  0  0  0  0  0  0  0  0  0  0
    0.6871   -0.8027    3.0126 C   0  0  0  0  0  0  0  0  0  0  0  0
    0.1507   -0.1424    4.1226 C   0  0  0  0  0  0  0  0  0  0  0  0
    0.9629    0.6729    4.9054 C   0  0  0  0  0  0  0  0  0  0  0  0
    2.3120    0.8256    4.5857 C   0  0  0  0  0  0  0  0  0  0  0  0
    2.8471    0.1636    3.4827 C   0  0  0  0  0  0  0  0  0  0  0  0
    2.0380   -0.6536    2.6950 C   0  0  0  0  0  0  0  0  0  0  0  0
   -1.9620   -4.9609    2.8908 C   0  0  0  0  0  0  0  0  0  0  0  0
   -2.7515   -4.4066    0.1152 C   0  0  0  0  0  0  0  0  0  0  0  0
    1.4433    1.9074    1.6312 H   0  0  0  0  0  0  0  0  0  0  0  0
    0.6513    3.7802    3.0318 H   0  0  0  0  0  0  0  0  0  0  0  0
   -3.4005    3.0107    1.8045 H   0  0  0  0  0  0  0  0  0  0  0  0
   -2.6311    1.1444    0.3897 H   0  0  0  0  0  0  0  0  0  0  0  0
   -2.3769    4.2375    4.2998 H   0  0  0  0  0  0  0  0  0  0  0  0
   -2.6662    5.2410    2.8697 H   0  0  0  0  0  0  0  0  0  0  0  0
   -1.1054    5.3050    3.6927 H   0  0  0  0  0  0  0  0  0  0  0  0
   -1.7103   -2.1132   -0.7977 H   0  0  0  0  0  0  0  0  0  0  0  0
   -0.3514   -3.0414    3.8799 H   0  0  0  0  0  0  0  0  0  0  0  0
   -0.9029   -0.2620    4.3678 H   0  0  0  0  0  0  0  0  0  0  0  0
    0.5454    1.1922    5.7639 H   0  0  0  0  0  0  0  0  0  0  0  0
    2.9454    1.4624    5.1986 H   0  0  0  0  0  0  0  0  0  0  0  0
    3.8983    0.2856    3.2293 H   0  0  0  0  0  0  0  0  0  0  0  0
    2.4583   -1.1602    1.8201 H   0  0  0  0  0  0  0  0  0  0  0  0
   -1.5405   -5.0647    3.9003 H   0  0  0  0  0  0  0  0  0  0  0  0
   -1.6907   -5.8713    2.3346 H   0  0  0  0  0  0  0  0  0  0  0  0
   -3.0569   -4.9613    3.0018 H   0  0  0  0  0  0  0  0  0  0  0  0
   -3.0993   -3.9905   -0.8406 H   0  0  0  0  0  0  0  0  0  0  0  0
   -3.6498   -4.6741    0.6891 H   0  0  0  0  0  0  0  0  0  0  0  0
   -2.2237   -5.3440   -0.1185 H   0  0  0  0  0  0  0  0  0  0  0  0
  1  2  2  0  0  0  0
  1 11  1  0  0  0  0
  1  4  1  0  0  0  0
  3  1  2  0  0  0  0
  4  9  2  0  0  0  0
  4  5  1  0  0  0  0
  5  6  2  0  0  0  0
  6  7  1  0  0  0  0
  6 26  1  0  0  0  0
  7 10  1  0  0  0  0
  8 27  1  0  0  0  0
  8  7  2  0  0  0  0
  9  8  1  0  0  0  0
 10 31  1  0  0  0  0
 10 29  1  0  0  0  0
 11 16  2  0  0  0  0
 12 13  2  0  0  0  0
 12 11  1  0  0  0  0
 13 14  1  0  0  0  0
 14 15  2  0  0  0  0
 14 23  1  0  0  0  0
 15 33  1  0  0  0  0
 16 15  1  0  0  0  0
 16 17  1  0  0  0  0
 17 18  1  0  0  0  0
 18 34  1  0  0  0  0
 18 19  2  0  0  0  0
 19 35  1  0  0  0  0
 20 19  1  0  0  0  0
 20 36  1  0  0  0  0
 21 20  2  0  0  0  0
 22 17  2  0  0  0  0
 22 21  1  0  0  0  0
 23 41  1  0  0  0  0
 23 39  1  0  0  0  0
 24 43  1  0  0  0  0
 24 13  1  0  0  0  0
 25  5  1  0  0  0  0
 28  9  1  0  0  0  0
 30 10  1  0  0  0  0
 32 12  1  0  0  0  0
 37 21  1  0  0  0  0
 38 22  1  0  0  0  0
 40 23  1  0  0  0  0
 42 24  1  0  0  0  0
 44 24  1  0  0  0  0
M  END
$$$$
