44
rmsd44.gzmat
S          0.00000        0.00000        0.00000
O          1.45160        0.00000        0.00000
O         -0.73050        0.00000       -1.25460
C         -0.53370        1.39140        0.94030
C          0.41360        2.24440        1.50320
C          0.00580        3.33700        2.26420
C         -1.35500        3.57910        2.46700
C         -2.30280        2.73410        1.88210
C         -1.89160        1.64700        1.11560
C         -1.79120        4.72060        3.31940
C         -0.54820       -1.43210        0.89000
C         -1.28950       -2.37640        0.18010
C         -1.73520       -3.54860        0.78970
C         -1.42860       -3.78300        2.13900
C         -0.69160       -2.83630        2.84770
C         -0.24920       -1.66010        2.23180
C          0.50420       -0.71330        3.07010
C         -0.15330       -0.06710        4.12180
C          0.54700        0.80950        4.94520
C          1.90620        1.03430        4.72820
C          2.56200        0.38540        3.68410
C          1.86400       -0.48770        2.85150
C         -1.88070       -5.02940        2.81900
C         -2.53030       -4.53490        0.00460
H          1.48710        2.06110        1.36370
H          0.74870        3.99590        2.70570
H         -3.36270        2.92690        2.02340
H         -2.65030        1.00750        0.65530
H         -1.85740        4.41270        4.37490
H         -2.77950        5.10670        3.03430
H         -1.09250        5.56790        3.27590
H         -1.53390       -2.20570       -0.87820
H         -0.44680       -3.01130        3.89420
H         -1.21360       -0.24590        4.29030
H          0.03450        1.32030        5.75610
H          2.45230        1.71780        5.37410
H          3.62210        0.56130        3.51270
H          2.37840       -0.97890        2.01880
H         -1.62820       -5.05030        3.88790
H         -1.42080       -5.92020        2.36340
H         -2.97120       -5.15570        2.74540
H         -2.65520       -4.23920       -1.04650
H         -3.54000       -4.65930        0.42200
H         -2.05540       -5.52690        0.00110
