44
rmsd10.gzmat
S          0.00000        0.00000        0.00000
O          1.45110        0.00000        0.00000
O         -0.72780        0.00000       -1.25650
C         -0.54270        1.38290        0.94730
C          0.39220        2.19320        1.58840
C         -0.03250        3.26370        2.37100
C         -1.39670        3.53030        2.51200
C         -2.33040        2.73040        1.84690
C         -1.90250        1.66360        1.06120
C         -1.84930        4.65320        3.38040
C         -0.56150       -1.42030        0.90130
C         -1.37100       -2.32890        0.22060
C         -1.86470       -3.46930        0.85340
C         -1.53960       -3.70600        2.19780
C         -0.72360       -2.80090        2.87370
C         -0.22860       -1.65950        2.23370
C          0.61440       -0.75900        3.03700
C          0.04990       -0.09820        4.13290
C          0.83600        0.73500        4.92330
C          2.18770        0.90700        4.62580
C          2.75110        0.24690        3.53580
C          1.96870       -0.59000        2.74170
C         -2.06060       -4.90530        2.91270
C         -2.72860       -4.41750        0.09420
H          1.46750        1.99230        1.49400
H          0.69890        3.88620        2.87910
H         -3.39190        2.94250        1.94100
H         -2.64830        1.05990        0.53580
H         -1.82580        4.35850        4.44110
H         -2.87580        4.97540        3.15850
H         -1.20790        5.54020        3.27970
H         -1.63410       -2.15420       -0.83270
H         -0.46070       -2.98170        3.91520
H         -1.00580       -0.23070        4.36200
H          0.39590        1.25250        5.77170
H          2.79990        1.55790        5.24530
H          3.80410        0.38550        3.29760
H          2.41370       -1.09610        1.87830
H         -1.65400       -5.00680        3.92840
H         -1.81570       -5.83470        2.37670
H         -3.15650       -4.86630        3.00810
H         -2.89930       -4.09720       -0.94350
H         -3.71820       -4.52440        0.56090
H         -2.28070       -5.42130        0.04690
