44
rmsd22.gzmat
S          0.00000        0.00000        0.00000
O          1.45130        0.00000        0.00000
O         -0.72980        0.00000       -1.25540
C         -0.54000        1.38620        0.94380
C          0.39550        2.18520        1.59830
C         -0.02600        3.26510        2.36980
C         -1.38840        3.55280        2.48590
C         -2.32220        2.76420        1.80770
C         -1.89710        1.68760        1.03360
C         -1.83820        4.68960        3.33790
C         -0.55500       -1.42530        0.89720
C         -1.36710       -2.33190        0.21660
C         -1.83530       -3.48840        0.83950
C         -1.48210       -3.74310        2.17340
C         -0.67070       -2.83570        2.85210
C         -0.20240       -1.67750        2.22200
C          0.63800       -0.77400        3.02450
C          0.07240       -0.10770        4.11620
C          0.85680        0.73260        4.90090
C          2.20790        0.90620        4.60180
C          2.77230        0.23770        3.51750
C          1.99160       -0.60460        2.72780
C         -1.95860       -4.97220        2.86800
C         -2.70110       -4.43710        0.08280
H          1.46980        1.97010        1.52190
H          0.70700        3.87930        2.88600
H         -3.38210        2.99260        1.88120
H         -2.64320        1.09310        0.49750
H         -1.84130        4.40370        4.40150
H         -2.85410        5.02820        3.09250
H         -1.17900        5.56440        3.24150
H         -1.65060       -2.14400       -0.82890
H         -0.38840       -3.02830        3.88610
H         -0.98280       -0.24160        4.34620
H          0.41510        1.25620        5.74470
H          2.81970        1.56350        5.21520
H          3.82490        0.37600        3.27880
H          2.43580       -1.11310        1.86570
H         -1.67570       -5.00070        3.92900
H         -1.54250       -5.87840        2.40080
H         -3.05430       -5.06100        2.82560
H         -2.84480       -4.13710       -0.96510
H         -3.70200       -4.51460        0.53210
H         -2.27300       -5.45020        0.06700
