rmsd19.gzmat
 OpenBabel08211713383D

 39 41  0  0  0  0  0  0  0  0999 V2000
    0.0000    0.0000    0.0000 Cl  0  0  0  0  0  0  0  0  0  0  0  0
    1.7101    0.0000    0.0000 C   0  0  0  0  0  0  0  0  0  0  0  0
    2.3669    0.0000    1.2219 C   0  0  0  0  0  0  0  0  0  0  0  0
    3.7639    0.0414    1.2249 C   0  0  0  0  0  0  0  0  0  0  0  0
    4.4558   -0.0153    0.0081 C   0  0  0  0  0  0  0  0  0  0  0  0
    3.7735   -0.0140   -1.2070 C   0  0  0  0  0  0  0  0  0  0  0  0
    2.3797    0.0115   -1.2169 C   0  0  0  0  0  0  0  0  0  0  0  0
    6.2202   -0.1253   -0.0030 S   0  0  0  0  0  0  0  0  0  0  0  0
    6.5281   -0.9339    1.5422 C   0  0  0  0  0  0  0  0  0  0  0  0
    5.6483   -0.7631    2.6162 C   0  0  0  0  0  0  0  0  0  0  0  0
    5.8861   -1.4417    3.8136 C   0  0  0  0  0  0  0  0  0  0  0  0
    7.0111   -2.2526    3.9411 C   0  0  0  0  0  0  0  0  0  0  0  0
    7.9001   -2.3919    2.8757 C   0  0  0  0  0  0  0  0  0  0  0  0
    7.6570   -1.7389    1.6689 C   0  0  0  0  0  0  0  0  0  0  0  0
    4.5115    0.1564    2.4795 C   0  0  0  0  0  0  0  0  0  0  0  0
    4.2804    1.0966    3.4123 C   0  0  0  0  0  0  0  0  0  0  0  0
    3.2572    2.1714    3.3236 C   0  0  0  0  0  0  0  0  0  0  0  0
    3.9039    3.5744    3.4497 C   0  0  0  0  0  0  0  0  0  0  0  0
    4.7442    4.0435    2.3341 N   0  0  0  0  0  0  0  0  0  0  0  0
    6.0762    3.4061    2.3122 C   0  0  0  0  0  0  0  0  0  0  0  0
    4.0797    3.9015    1.0232 C   0  0  0  0  0  0  0  0  0  0  0  0
    1.8178   -0.0360    2.1634 H   0  0  0  0  0  0  0  0  0  0  0  0
    4.3139   -0.0416   -2.1562 H   0  0  0  0  0  0  0  0  0  0  0  0
    1.8366    0.0238   -2.1616 H   0  0  0  0  0  0  0  0  0  0  0  0
    5.1900   -1.3367    4.6443 H   0  0  0  0  0  0  0  0  0  0  0  0
    7.1972   -2.7783    4.8762 H   0  0  0  0  0  0  0  0  0  0  0  0
    8.7834   -3.0188    2.9836 H   0  0  0  0  0  0  0  0  0  0  0  0
    8.3516   -1.8726    0.8383 H   0  0  0  0  0  0  0  0  0  0  0  0
    4.8986    1.1382    4.3152 H   0  0  0  0  0  0  0  0  0  0  0  0
    2.5077    2.0450    4.1339 H   0  0  0  0  0  0  0  0  0  0  0  0
    2.6746    2.1297    2.3815 H   0  0  0  0  0  0  0  0  0  0  0  0
    4.5060    3.6285    4.3829 H   0  0  0  0  0  0  0  0  0  0  0  0
    3.0880    4.3274    3.5627 H   0  0  0  0  0  0  0  0  0  0  0  0
    6.5773    3.5648    3.2797 H   0  0  0  0  0  0  0  0  0  0  0  0
    6.6900    3.8984    1.5391 H   0  0  0  0  0  0  0  0  0  0  0  0
    6.0639    2.3266    2.0998 H   0  0  0  0  0  0  0  0  0  0  0  0
    3.0693    4.3364    1.0677 H   0  0  0  0  0  0  0  0  0  0  0  0
    4.0005    2.8635    0.6628 H   0  0  0  0  0  0  0  0  0  0  0  0
    4.6531    4.4811    0.2801 H   0  0  0  0  0  0  0  0  0  0  0  0
  2  1  1  0  0  0  0
  2  3  2  0  0  0  0
  3  4  1  0  0  0  0
  3 22  1  0  0  0  0
  4 15  1  0  0  0  0
  5  4  2  0  0  0  0
  6  5  1  0  0  0  0
  7  6  2  0  0  0  0
  7  2  1  0  0  0  0
  8  5  1  0  0  0  0
  8  9  1  0  0  0  0
  9 14  2  0  0  0  0
  9 10  1  0  0  0  0
 10 11  2  0  0  0  0
 11 12  1  0  0  0  0
 11 25  1  0  0  0  0
 12 26  1  0  0  0  0
 13 27  1  0  0  0  0
 13 12  2  0  0  0  0
 14 13  1  0  0  0  0
 15 10  1  0  0  0  0
 15 16  2  0  0  0  0
 16 29  1  0  0  0  0
 17 16  1  0  0  0  0
 17 18  1  0  0  0  0
 17 30  1  0  0  0  0
 18 33  1  0  0  0  0
 18 32  1  0  0  0  0
 19 18  1  0  0  0  0
 20 19  1  0  0  0  0
 20 34  1  0  0  0  0
 21 37  1  0  0  0  0
 21 19  1  0  0  0  0
 23  6  1  0  0  0  0
 24  7  1  0  0  0  0
 28 14  1  0  0  0  0
 31 17  1  0  0  0  0
 35 20  1  0  0  0  0
 36 20  1  0  0  0  0
 38 21  1  0  0  0  0
 39 21  1  0  0  0  0
M  END
$$$$
