
     RDKit          3D

 39 41  0  0  0  0  0  0  0  0999 V2000
   -0.0389    0.1442   -0.1104 Cl  0  0  0  0  0  0  0  0  0  0  0  0
    1.7076    0.0856   -0.0695 C   0  0  0  0  0  0  0  0  0  0  0  0
    2.3630    0.0731    1.1607 C   0  0  0  0  0  0  0  0  0  0  0  0
    3.7651    0.0528    1.2210 C   0  0  0  0  0  0  0  0  0  0  0  0
    4.4876   -0.0431    0.0133 C   0  0  0  0  0  0  0  0  0  0  0  0
    3.8174   -0.0359   -1.2172 C   0  0  0  0  0  0  0  0  0  0  0  0
    2.4275    0.0487   -1.2670 C   0  0  0  0  0  0  0  0  0  0  0  0
    6.2592   -0.1449    0.0138 S   0  0  0  0  0  0  0  0  0  0  0  0
    6.5264   -0.9819    1.5604 C   0  0  0  0  0  0  0  0  0  0  0  0
    5.6504   -0.7908    2.6486 C   0  0  0  0  0  0  0  0  0  0  0  0
    5.9293   -1.4612    3.8504 C   0  0  0  0  0  0  0  0  0  0  0  0
    7.0630   -2.2626    3.9848 C   0  0  0  0  0  0  0  0  0  0  0  0
    7.9352   -2.4224    2.9035 C   0  0  0  0  0  0  0  0  0  0  0  0
    7.6622   -1.7918    1.6896 C   0  0  0  0  0  0  0  0  0  0  0  0
    4.4946    0.1298    2.5100 C   0  0  0  0  0  0  0  0  0  0  0  0
    4.2280    1.0419    3.4714 C   0  0  0  0  0  0  0  0  0  0  0  0
    3.2409    2.1654    3.4427 C   0  0  0  0  0  0  0  0  0  0  0  0
    3.9146    3.5644    3.4470 C   0  0  0  0  0  0  0  0  0  0  0  0
    4.7017    3.9290    2.2893 N   0  0  0  0  0  0  0  0  0  0  0  0
    6.0582    3.4255    2.2144 C   0  0  0  0  0  0  0  0  0  0  0  0
    3.9998    3.9010    1.0271 C   0  0  0  0  0  0  0  0  0  0  0  0
    1.7802    0.0790    2.0810 H   0  0  0  0  0  0  0  0  0  0  0  0
    4.3904   -0.1094   -2.1440 H   0  0  0  0  0  0  0  0  0  0  0  0
    1.9009    0.0569   -2.2219 H   0  0  0  0  0  0  0  0  0  0  0  0
    5.2362   -1.3471    4.6868 H   0  0  0  0  0  0  0  0  0  0  0  0
    7.2613   -2.7707    4.9310 H   0  0  0  0  0  0  0  0  0  0  0  0
    8.8213   -3.0543    2.9979 H   0  0  0  0  0  0  0  0  0  0  0  0
    8.3258   -1.9293    0.8330 H   0  0  0  0  0  0  0  0  0  0  0  0
    4.8888    1.0329    4.3465 H   0  0  0  0  0  0  0  0  0  0  0  0
    2.5935    2.1112    4.3376 H   0  0  0  0  0  0  0  0  0  0  0  0
    2.5761    2.0970    2.5724 H   0  0  0  0  0  0  0  0  0  0  0  0
    4.5557    3.6573    4.3403 H   0  0  0  0  0  0  0  0  0  0  0  0
    3.1055    4.3091    3.5637 H   0  0  0  0  0  0  0  0  0  0  0  0
    6.5332    3.4813    3.2064 H   0  0  0  0  0  0  0  0  0  0  0  0
    6.6489    4.0558    1.5262 H   0  0  0  0  0  0  0  0  0  0  0  0
    6.1442    2.3807    1.8556 H   0  0  0  0  0  0  0  0  0  0  0  0
    3.0217    4.4002    1.1261 H   0  0  0  0  0  0  0  0  0  0  0  0
    3.8178    2.8792    0.6263 H   0  0  0  0  0  0  0  0  0  0  0  0
    4.5791    4.4488    0.2650 H   0  0  0  0  0  0  0  0  0  0  0  0
  1  2  1  0
  2  3  2  0
  2  7  1  0
  3  4  1  0
  3 22  1  0
  4  5  2  0
  4 15  1  0
  5  6  1  0
  5  8  1  0
  6  7  2  0
  6 23  1  0
  7 24  1  0
  8  9  1  0
  9 10  2  0
  9 14  1  0
 10 11  1  0
 10 15  1  0
 11 12  2  0
 11 25  1  0
 12 13  1  0
 12 26  1  0
 13 14  2  0
 13 27  1  0
 14 28  1  0
 15 16  2  0
 16 17  1  0
 16 29  1  0
 17 18  1  0
 17 30  1  0
 17 31  1  0
 18 19  1  0
 18 32  1  0
 18 33  1  0
 19 20  1  0
 19 21  1  0
 20 34  1  0
 20 35  1  0
 20 36  1  0
 21 37  1  0
 21 38  1  0
 21 39  1  0
M  END

