44

N         -0.00490       -0.08490       -0.02150
C          1.38120       -0.09570        0.02520
O          2.04540       -0.11070        1.04670
C          1.81310       -0.03920       -1.41930
C          3.11090       -0.10580       -1.84100
C          4.25590       -0.29430       -0.87420
C          4.77310        1.06120       -0.33860
C          5.17760        1.99220       -1.45740
O          4.63460        3.03180       -1.74100
O          6.21570        1.48840       -2.15580
C          6.59400        2.20820       -3.32810
C          3.45280        0.08550       -3.27090
C          2.92780        1.17430       -3.99270
C          3.26620        1.37330       -5.33180
C          4.13280        0.48730       -5.97850
C          4.67090       -0.59170       -5.27030
C          4.34260       -0.78420       -3.92850
C          0.58870        0.05690       -2.19520
C         -0.47590        0.02830       -1.33830
C         -1.90710        0.05100       -1.63420
C         -2.85220       -0.42800       -0.70710
C         -4.21560       -0.41020       -1.00390
C         -4.66210        0.08420       -2.23170
C         -3.73240        0.56260       -3.16250
C         -2.37170        0.55030       -2.86730
H         -0.56320        0.03180        0.81400
H          5.08560       -0.80510       -1.38280
H          3.93870       -0.89060       -0.01070
H          5.64510        0.87690        0.30900
H          3.99070        1.55080        0.25320
H          7.45730        1.67770       -3.74780
H          6.86260        3.24610       -3.08150
H          5.76720        2.21840       -4.05340
H          2.28530        1.88990       -3.47850
H          2.85980        2.23340       -5.86930
H          4.39620        0.64250       -7.02740
H          5.35160       -1.28780       -5.76620
H          4.76840       -1.63060       -3.38600
H          0.52190        0.05770       -3.27870
H         -2.51890       -0.84550        0.24540
H         -4.93260       -0.79130       -0.27300
H         -5.72960        0.10000       -2.46290
H         -4.07370        0.95770       -4.12220
H         -1.65490        0.94900       -3.58730
