rmsd215.gzmat
 OpenBabel08211713383D

 44 46  0  0  0  0  0  0  0  0999 V2000
    0.0000    0.0000    0.0000 N   0  0  0  0  0  0  0  0  0  0  0  0
    1.4135    0.0000    0.0000 C   0  0  0  0  0  0  0  0  0  0  0  0
    2.0673    0.0000    1.0121 O   0  0  0  0  0  0  0  0  0  0  0  0
    1.8267    0.0085   -1.4392 C   0  0  0  0  0  0  0  0  0  0  0  0
    3.0913   -0.0155   -1.8879 C   0  0  0  0  0  0  0  0  0  0  0  0
    4.2761   -0.0804   -0.9739 C   0  0  0  0  0  0  0  0  0  0  0  0
    4.6365    1.3122   -0.4409 C   0  0  0  0  0  0  0  0  0  0  0  0
    5.1475    2.1814   -1.5518 C   0  0  0  0  0  0  0  0  0  0  0  0
    4.5986    3.1184   -2.0697 O   0  0  0  0  0  0  0  0  0  0  0  0
    6.3842    1.7613   -1.9262 O   0  0  0  0  0  0  0  0  0  0  0  0
    6.9751    2.4453   -3.0257 C   0  0  0  0  0  0  0  0  0  0  0  0
    3.3837    0.0311   -3.3280 C   0  0  0  0  0  0  0  0  0  0  0  0
    3.1652    1.2158   -4.0357 C   0  0  0  0  0  0  0  0  0  0  0  0
    3.4367    1.2661   -5.4001 C   0  0  0  0  0  0  0  0  0  0  0  0
    3.9249    0.1377   -6.0570 C   0  0  0  0  0  0  0  0  0  0  0  0
    4.1443   -1.0427   -5.3486 C   0  0  0  0  0  0  0  0  0  0  0  0
    3.8763   -1.0988   -3.9828 C   0  0  0  0  0  0  0  0  0  0  0  0
    0.5825    0.0357   -2.2064 C   0  0  0  0  0  0  0  0  0  0  0  0
   -0.4711    0.0238   -1.3391 C   0  0  0  0  0  0  0  0  0  0  0  0
   -1.8993    0.0174   -1.6201 C   0  0  0  0  0  0  0  0  0  0  0  0
   -2.7561   -0.8397   -0.9226 C   0  0  0  0  0  0  0  0  0  0  0  0
   -4.1178   -0.8449   -1.2120 C   0  0  0  0  0  0  0  0  0  0  0  0
   -4.6270    0.0024   -2.1955 C   0  0  0  0  0  0  0  0  0  0  0  0
   -3.7727    0.8547   -2.8935 C   0  0  0  0  0  0  0  0  0  0  0  0
   -2.4096    0.8636   -2.6098 C   0  0  0  0  0  0  0  0  0  0  0  0
   -0.5840    0.0332    0.8054 H   0  0  0  0  0  0  0  0  0  0  0  0
    5.1536   -0.5294   -1.4873 H   0  0  0  0  0  0  0  0  0  0  0  0
    4.0594   -0.7504   -0.1066 H   0  0  0  0  0  0  0  0  0  0  0  0
    5.3987    1.2238    0.3637 H   0  0  0  0  0  0  0  0  0  0  0  0
    3.7480    1.7872    0.0362 H   0  0  0  0  0  0  0  0  0  0  0  0
    7.9940    2.0423   -3.0495 H   0  0  0  0  0  0  0  0  0  0  0  0
    6.9760    3.5277   -2.8554 H   0  0  0  0  0  0  0  0  0  0  0  0
    6.4286    2.2037   -3.9438 H   0  0  0  0  0  0  0  0  0  0  0  0
    2.7965    2.1023   -3.5135 H   0  0  0  0  0  0  0  0  0  0  0  0
    3.2652    2.1885   -5.9522 H   0  0  0  0  0  0  0  0  0  0  0  0
    4.1339    0.1780   -7.1240 H   0  0  0  0  0  0  0  0  0  0  0  0
    4.5245   -1.9226   -5.8631 H   0  0  0  0  0  0  0  0  0  0  0  0
    4.0426   -2.0214   -3.4301 H   0  0  0  0  0  0  0  0  0  0  0  0
    0.5518    0.0423   -3.2767 H   0  0  0  0  0  0  0  0  0  0  0  0
   -2.3577   -1.5134   -0.1651 H   0  0  0  0  0  0  0  0  0  0  0  0
   -4.7852   -1.5140   -0.6717 H   0  0  0  0  0  0  0  0  0  0  0  0
   -5.6922   -0.0035   -2.4197 H   0  0  0  0  0  0  0  0  0  0  0  0
   -4.1720    1.5147   -3.6618 H   0  0  0  0  0  0  0  0  0  0  0  0
   -1.7395    1.5294   -3.1544 H   0  0  0  0  0  0  0  0  0  0  0  0
  1  2  1  0  0  0  0
  1 26  1  0  0  0  0
  2  3  2  0  0  0  0
  4  2  1  0  0  0  0
  5  4  2  0  0  0  0
  5  6  1  0  0  0  0
  6  7  1  0  0  0  0
  6 28  1  0  0  0  0
  7 30  1  0  0  0  0
  7 29  1  0  0  0  0
  8  7  1  0  0  0  0
  9  8  2  0  0  0  0
 10  8  1  0  0  0  0
 11 32  1  0  0  0  0
 11 10  1  0  0  0  0
 12  5  1  0  0  0  0
 13 34  1  0  0  0  0
 13 12  2  0  0  0  0
 14 13  1  0  0  0  0
 15 14  2  0  0  0  0
 15 16  1  0  0  0  0
 16 17  2  0  0  0  0
 17 38  1  0  0  0  0
 17 12  1  0  0  0  0
 18  4  1  0  0  0  0
 18 19  2  0  0  0  0
 19  1  1  0  0  0  0
 20 19  1  0  0  0  0
 20 21  2  0  0  0  0
 21 40  1  0  0  0  0
 22 21  1  0  0  0  0
 22 41  1  0  0  0  0
 23 22  2  0  0  0  0
 24 25  2  0  0  0  0
 24 23  1  0  0  0  0
 25 20  1  0  0  0  0
 27  6  1  0  0  0  0
 31 11  1  0  0  0  0
 33 11  1  0  0  0  0
 35 14  1  0  0  0  0
 36 15  1  0  0  0  0
 37 16  1  0  0  0  0
 39 18  1  0  0  0  0
 42 23  1  0  0  0  0
 43 24  1  0  0  0  0
 44 25  1  0  0  0  0
M  END
$$$$
