44

N         -0.09910        0.03630       -0.03200
C          1.28690        0.07970        0.01340
O          1.94930        0.15430        1.03350
C          1.71780        0.07040       -1.43190
C          3.01950        0.01710       -1.84750
C          4.16250       -0.12410       -0.87400
C          4.64910        1.24470       -0.38540
C          5.92840        1.14210        0.41300
O          6.65630        0.17990        0.45360
O          6.18170        2.28640        1.07530
C          7.38320        2.31340        1.84300
C          3.36600        0.15350       -3.28120
C          2.78190        1.16290       -4.07200
C          3.12120        1.30540       -5.41760
C          4.04620        0.43790       -6.00580
C          4.63880       -0.56500       -5.23300
C          4.31210       -0.69820       -3.88350
C          0.49050        0.08140       -2.21040
C         -0.57320        0.05730       -1.35190
C         -2.00380        0.00300       -1.64720
C         -2.92910       -0.46160       -0.69320
C         -4.29170       -0.51820       -0.98890
C         -4.75730       -0.11420       -2.24240
C         -3.84730        0.34870       -3.20010
C         -2.48770        0.41070       -2.90620
H         -0.66190        0.17490        0.79700
H          5.00740       -0.63610       -1.35410
H          3.86000       -0.71270        0.00060
H          3.88210        1.72930        0.23530
H          4.84670        1.92210       -1.23490
H          7.42940        3.30660        2.30640
H          8.26280        2.14940        1.20180
H          7.37010        1.53120        2.61710
H          2.07530        1.85540       -3.61180
H          2.66650        2.10410       -6.00880
H          4.30980        0.54750       -7.06040
H          5.36270       -1.24790       -5.68380
H          4.77930       -1.48850       -3.29300
H          0.42320        0.01250       -3.29170
H         -2.57980       -0.81000        0.28110
H         -4.99290       -0.88700       -0.23650
H         -5.82420       -0.15700       -2.47300
H         -4.20370        0.67290       -4.18080
H         -1.78740        0.79660       -3.64910
