rmsd15.gzmat
 OpenBabel08211713383D

 44 46  0  0  0  0  0  0  0  0999 V2000
    0.0000    0.0000    0.0000 N   0  0  0  0  0  0  0  0  0  0  0  0
    1.4134    0.0000    0.0000 C   0  0  0  0  0  0  0  0  0  0  0  0
    2.0669    0.0000    1.0124 O   0  0  0  0  0  0  0  0  0  0  0  0
    1.8276    0.0060   -1.4396 C   0  0  0  0  0  0  0  0  0  0  0  0
    3.0930    0.0039   -1.8865 C   0  0  0  0  0  0  0  0  0  0  0  0
    4.2763   -0.0026   -0.9673 C   0  0  0  0  0  0  0  0  0  0  0  0
    4.5519    1.4065   -0.4264 C   0  0  0  0  0  0  0  0  0  0  0  0
    4.9562    2.3241   -1.5418 C   0  0  0  0  0  0  0  0  0  0  0  0
    4.3106    3.2081   -2.0418 O   0  0  0  0  0  0  0  0  0  0  0  0
    6.2158    2.0202   -1.9506 O   0  0  0  0  0  0  0  0  0  0  0  0
    6.7161    2.7729   -3.0502 C   0  0  0  0  0  0  0  0  0  0  0  0
    3.3972    0.0270   -3.3246 C   0  0  0  0  0  0  0  0  0  0  0  0
    3.1158    1.1721   -4.0738 C   0  0  0  0  0  0  0  0  0  0  0  0
    3.4220    1.2029   -5.4318 C   0  0  0  0  0  0  0  0  0  0  0  0
    4.0045    0.0934   -6.0422 C   0  0  0  0  0  0  0  0  0  0  0  0
    4.2781   -1.0511   -5.2944 C   0  0  0  0  0  0  0  0  0  0  0  0
    3.9771   -1.0869   -3.9352 C   0  0  0  0  0  0  0  0  0  0  0  0
    0.5836    0.0225   -2.2069 C   0  0  0  0  0  0  0  0  0  0  0  0
   -0.4699    0.0239   -1.3394 C   0  0  0  0  0  0  0  0  0  0  0  0
   -1.8978    0.0508   -1.6202 C   0  0  0  0  0  0  0  0  0  0  0  0
   -2.7767   -0.7926   -0.9347 C   0  0  0  0  0  0  0  0  0  0  0  0
   -4.1397   -0.7497   -1.2169 C   0  0  0  0  0  0  0  0  0  0  0  0
   -4.6263    0.1301   -2.1829 C   0  0  0  0  0  0  0  0  0  0  0  0
   -3.7486    0.9667   -2.8713 C   0  0  0  0  0  0  0  0  0  0  0  0
   -2.3850    0.9288   -2.5935 C   0  0  0  0  0  0  0  0  0  0  0  0
   -0.5841    0.0360    0.8055 H   0  0  0  0  0  0  0  0  0  0  0  0
    5.1814   -0.3959   -1.4781 H   0  0  0  0  0  0  0  0  0  0  0  0
    4.0927   -0.6892   -0.1056 H   0  0  0  0  0  0  0  0  0  0  0  0
    5.3442    1.3663    0.3516 H   0  0  0  0  0  0  0  0  0  0  0  0
    3.6460    1.8088    0.0850 H   0  0  0  0  0  0  0  0  0  0  0  0
    7.6934    2.3151   -3.2399 H   0  0  0  0  0  0  0  0  0  0  0  0
    6.8143    3.8266   -2.7688 H   0  0  0  0  0  0  0  0  0  0  0  0
    6.0532    2.6682   -3.9159 H   0  0  0  0  0  0  0  0  0  0  0  0
    2.6715    2.0447   -3.5882 H   0  0  0  0  0  0  0  0  0  0  0  0
    3.2049    2.0955   -6.0160 H   0  0  0  0  0  0  0  0  0  0  0  0
    4.2448    0.1193   -7.1031 H   0  0  0  0  0  0  0  0  0  0  0  0
    4.7280   -1.9184   -5.7730 H   0  0  0  0  0  0  0  0  0  0  0  0
    4.1863   -1.9822   -3.3529 H   0  0  0  0  0  0  0  0  0  0  0  0
    0.5529    0.0218   -3.2772 H   0  0  0  0  0  0  0  0  0  0  0  0
   -2.3959   -1.4919   -0.1916 H   0  0  0  0  0  0  0  0  0  0  0  0
   -4.8243   -1.4061   -0.6826 H   0  0  0  0  0  0  0  0  0  0  0  0
   -5.6925    0.1629   -2.4015 H   0  0  0  0  0  0  0  0  0  0  0  0
   -4.1299    1.6518   -3.6264 H   0  0  0  0  0  0  0  0  0  0  0  0
   -1.6953    1.5833   -3.1276 H   0  0  0  0  0  0  0  0  0  0  0  0
  1  2  1  0  0  0  0
  1 26  1  0  0  0  0
  2  3  2  0  0  0  0
  4  2  1  0  0  0  0
  5  4  2  0  0  0  0
  5  6  1  0  0  0  0
  6  7  1  0  0  0  0
  6 28  1  0  0  0  0
  7 30  1  0  0  0  0
  7 29  1  0  0  0  0
  8  7  1  0  0  0  0
  9  8  2  0  0  0  0
 10  8  1  0  0  0  0
 11 32  1  0  0  0  0
 11 10  1  0  0  0  0
 12  5  1  0  0  0  0
 13 34  1  0  0  0  0
 13 12  2  0  0  0  0
 14 13  1  0  0  0  0
 15 14  2  0  0  0  0
 15 16  1  0  0  0  0
 16 17  2  0  0  0  0
 17 38  1  0  0  0  0
 17 12  1  0  0  0  0
 18  4  1  0  0  0  0
 18 19  2  0  0  0  0
 19  1  1  0  0  0  0
 20 19  1  0  0  0  0
 20 21  2  0  0  0  0
 21 40  1  0  0  0  0
 22 21  1  0  0  0  0
 22 41  1  0  0  0  0
 23 22  2  0  0  0  0
 24 25  2  0  0  0  0
 24 23  1  0  0  0  0
 25 20  1  0  0  0  0
 27  6  1  0  0  0  0
 31 11  1  0  0  0  0
 33 11  1  0  0  0  0
 35 14  1  0  0  0  0
 36 15  1  0  0  0  0
 37 16  1  0  0  0  0
 39 18  1  0  0  0  0
 42 23  1  0  0  0  0
 43 24  1  0  0  0  0
 44 25  1  0  0  0  0
M  END
$$$$
