44
rmsd119.gzmat
N          0.00000        0.00000        0.00000
C          1.41620        0.00000        0.00000
O          2.06670        0.00000        1.01290
C          1.82820       -0.00980       -1.43960
C          3.08960       -0.00140       -1.89760
C          4.28640        0.02640       -1.00200
C          4.64800       -1.40290       -0.58160
C          5.99250       -1.41370        0.07990
O          6.84710       -0.56780        0.04950
O          6.14940       -2.58460        0.75360
C          7.38180       -2.74690        1.44670
C          3.36930       -0.03460       -3.34140
C          3.88870        1.09390       -3.97920
C          4.15170        1.05490       -5.34640
C          3.90470       -0.10880       -6.07370
C          3.38740       -1.23470       -5.43490
C          3.11560       -1.19930       -4.06950
C          0.58320       -0.01280       -2.20490
C         -0.47090        0.00200       -1.33730
C         -1.89640        0.01750       -1.63190
C         -2.78950       -0.77660       -0.90700
C         -4.14650       -0.75520       -1.21930
C         -4.61430        0.05540       -2.25280
C         -3.72370        0.84580       -2.97790
C         -2.36610        0.82830       -2.67020
H         -0.58240        0.04690        0.80640
H          4.09480        0.64500       -0.09260
H          5.15450        0.51110       -1.50270
H          4.66130       -2.08730       -1.45710
H          3.87120       -1.80830        0.10890
H          7.26140       -3.71660        1.94260
H          7.51690       -1.93990        2.17500
H          8.21410       -2.76220        0.73550
H          4.08250        2.00190       -3.41010
H          4.55260        1.93400       -5.84770
H          4.11590       -0.13790       -7.14070
H          3.19410       -2.14210       -6.00370
H          2.70250       -2.07480       -3.57000
H          0.55090       -0.02660       -3.27440
H         -2.42550       -1.42250       -0.10940
H         -4.84280       -1.37510       -0.65680
H         -5.67570        0.07010       -2.49470
H         -4.08950        1.47790       -3.78520
H         -1.66720        1.44700       -3.23360
