
     RDKit          3D

 44 46  0  0  0  0  0  0  0  0999 V2000
   -0.0648   -0.1110   -0.0453 N   0  0  0  0  0  0  0  0  0  0  0  0
    1.3214   -0.1539   -0.0114 C   0  0  0  0  0  0  0  0  0  0  0  0
    1.9915   -0.2560    1.0013 O   0  0  0  0  0  0  0  0  0  0  0  0
    1.7416   -0.1040   -1.4590 C   0  0  0  0  0  0  0  0  0  0  0  0
    3.0401   -0.0377   -1.8826 C   0  0  0  0  0  0  0  0  0  0  0  0
    4.1902    0.0782   -0.9141 C   0  0  0  0  0  0  0  0  0  0  0  0
    4.6823   -1.3029   -0.4674 C   0  0  0  0  0  0  0  0  0  0  0  0
    5.9676   -1.2204    0.3239 C   0  0  0  0  0  0  0  0  0  0  0  0
    6.6946   -0.2587    0.3852 O   0  0  0  0  0  0  0  0  0  0  0  0
    6.2271   -2.3820    0.9528 O   0  0  0  0  0  0  0  0  0  0  0  0
    7.4345   -2.4284    1.7103 C   0  0  0  0  0  0  0  0  0  0  0  0
    3.3761   -0.1345   -3.3221 C   0  0  0  0  0  0  0  0  0  0  0  0
    4.3167    0.7346   -3.9079 C   0  0  0  0  0  0  0  0  0  0  0  0
    4.6334    0.6385   -5.2630 C   0  0  0  0  0  0  0  0  0  0  0  0
    4.0362   -0.3438   -6.0584 C   0  0  0  0  0  0  0  0  0  0  0  0
    3.1166   -1.2282   -5.4872 C   0  0  0  0  0  0  0  0  0  0  0  0
    2.7872   -1.1228   -4.1357 C   0  0  0  0  0  0  0  0  0  0  0  0
    0.5086   -0.0949   -2.2285 C   0  0  0  0  0  0  0  0  0  0  0  0
   -0.5487   -0.0958   -1.3618 C   0  0  0  0  0  0  0  0  0  0  0  0
   -1.9815   -0.0348   -1.6449 C   0  0  0  0  0  0  0  0  0  0  0  0
   -2.4743   -0.4069   -2.9114 C   0  0  0  0  0  0  0  0  0  0  0  0
   -3.8361   -0.3381   -3.1935 C   0  0  0  0  0  0  0  0  0  0  0  0
   -4.7395    0.0962   -2.2163 C   0  0  0  0  0  0  0  0  0  0  0  0
   -4.2651    0.4647   -0.9552 C   0  0  0  0  0  0  0  0  0  0  0  0
   -2.9003    0.4012   -0.6712 C   0  0  0  0  0  0  0  0  0  0  0  0
   -0.6213   -0.2731    0.7837 H   0  0  0  0  0  0  0  0  0  0  0  0
    3.8935    0.6419   -0.0213 H   0  0  0  0  0  0  0  0  0  0  0  0
    5.0308    0.6047   -1.3862 H   0  0  0  0  0  0  0  0  0  0  0  0
    4.8744   -1.9561   -1.3369 H   0  0  0  0  0  0  0  0  0  0  0  0
    3.9208   -1.8057    0.1454 H   0  0  0  0  0  0  0  0  0  0  0  0
    8.3090   -2.2458    1.0672 H   0  0  0  0  0  0  0  0  0  0  0  0
    7.4853   -3.4338    2.1460 H   0  0  0  0  0  0  0  0  0  0  0  0
    7.4263   -1.6677    2.5056 H   0  0  0  0  0  0  0  0  0  0  0  0
    4.7874    1.5091   -3.2997 H   0  0  0  0  0  0  0  0  0  0  0  0
    5.3532    1.3345   -5.7003 H   0  0  0  0  0  0  0  0  0  0  0  0
    4.2921   -0.4243   -7.1175 H   0  0  0  0  0  0  0  0  0  0  0  0
    2.6584   -2.0111   -6.0964 H   0  0  0  0  0  0  0  0  0  0  0  0
    2.0848   -1.8284   -3.6892 H   0  0  0  0  0  0  0  0  0  0  0  0
    0.4333    0.0040   -3.3069 H   0  0  0  0  0  0  0  0  0  0  0  0
   -1.7791   -0.7707   -3.6702 H   0  0  0  0  0  0  0  0  0  0  0  0
   -4.1993   -0.6346   -4.1804 H   0  0  0  0  0  0  0  0  0  0  0  0
   -5.8080    0.1444   -2.4378 H   0  0  0  0  0  0  0  0  0  0  0  0
   -4.9610    0.8111   -0.1875 H   0  0  0  0  0  0  0  0  0  0  0  0
   -2.5441    0.7221    0.3101 H   0  0  0  0  0  0  0  0  0  0  0  0
  1  2  1  0
  1 19  1  0
  1 26  1  0
  2  3  2  0
  2  4  1  0
  4  5  2  0
  4 18  1  0
  5  6  1  0
  5 12  1  0
  6  7  1  0
  6 27  1  0
  6 28  1  0
  7  8  1  0
  7 29  1  0
  7 30  1  0
  8  9  2  0
  8 10  1  0
 10 11  1  0
 11 31  1  0
 11 32  1  0
 11 33  1  0
 12 13  2  0
 12 17  1  0
 13 14  1  0
 13 34  1  0
 14 15  2  0
 14 35  1  0
 15 16  1  0
 15 36  1  0
 16 17  2  0
 16 37  1  0
 17 38  1  0
 18 19  2  0
 18 39  1  0
 19 20  1  0
 20 21  2  0
 20 25  1  0
 21 22  1  0
 21 40  1  0
 22 23  2  0
 22 41  1  0
 23 24  1  0
 23 42  1  0
 24 25  2  0
 24 43  1  0
 25 44  1  0
M  END

