rmsd107.gzmat
 OpenBabel08211713383D

 44 46  0  0  0  0  0  0  0  0999 V2000
    0.0000    0.0000    0.0000 N   0  0  0  0  0  0  0  0  0  0  0  0
    1.4150    0.0000    0.0000 C   0  0  0  0  0  0  0  0  0  0  0  0
    2.0602    0.0000    1.0178 O   0  0  0  0  0  0  0  0  0  0  0  0
    1.8302   -0.0040   -1.4375 C   0  0  0  0  0  0  0  0  0  0  0  0
    3.0873   -0.0078   -1.9121 C   0  0  0  0  0  0  0  0  0  0  0  0
    4.2939    0.0373   -1.0316 C   0  0  0  0  0  0  0  0  0  0  0  0
    5.3996   -0.9201   -1.4836 C   0  0  0  0  0  0  0  0  0  0  0  0
    6.2683   -0.2825   -2.5284 C   0  0  0  0  0  0  0  0  0  0  0  0
    6.5186    0.8855   -2.6752 O   0  0  0  0  0  0  0  0  0  0  0  0
    6.7951   -1.2475   -3.3265 O   0  0  0  0  0  0  0  0  0  0  0  0
    7.6032   -0.7946   -4.4076 C   0  0  0  0  0  0  0  0  0  0  0  0
    3.3255   -0.0286   -3.3647 C   0  0  0  0  0  0  0  0  0  0  0  0
    3.8682    1.0893   -4.0019 C   0  0  0  0  0  0  0  0  0  0  0  0
    4.0892    1.0622   -5.3769 C   0  0  0  0  0  0  0  0  0  0  0  0
    3.7797   -0.0803   -6.1129 C   0  0  0  0  0  0  0  0  0  0  0  0
    3.2378   -1.1957   -5.4757 C   0  0  0  0  0  0  0  0  0  0  0  0
    3.0038   -1.1704   -4.1034 C   0  0  0  0  0  0  0  0  0  0  0  0
    0.5839    0.0101   -2.2037 C   0  0  0  0  0  0  0  0  0  0  0  0
   -0.4708    0.0201   -1.3379 C   0  0  0  0  0  0  0  0  0  0  0  0
   -1.8957    0.0524   -1.6325 C   0  0  0  0  0  0  0  0  0  0  0  0
   -2.7956   -0.7535   -0.9292 C   0  0  0  0  0  0  0  0  0  0  0  0
   -4.1520   -0.7133   -1.2419 C   0  0  0  0  0  0  0  0  0  0  0  0
   -4.6127    0.1288   -2.2532 C   0  0  0  0  0  0  0  0  0  0  0  0
   -3.7153    0.9309   -2.9569 C   0  0  0  0  0  0  0  0  0  0  0  0
   -2.3581    0.8942   -2.6499 C   0  0  0  0  0  0  0  0  0  0  0  0
   -0.5817    0.0447    0.8068 H   0  0  0  0  0  0  0  0  0  0  0  0
    4.0262   -0.1890    0.0304 H   0  0  0  0  0  0  0  0  0  0  0  0
    4.6806    1.0864   -0.9995 H   0  0  0  0  0  0  0  0  0  0  0  0
    4.9692   -1.8752   -1.8571 H   0  0  0  0  0  0  0  0  0  0  0  0
    6.0370   -1.2068   -0.6172 H   0  0  0  0  0  0  0  0  0  0  0  0
    8.0310   -1.7218   -4.8056 H   0  0  0  0  0  0  0  0  0  0  0  0
    8.3837   -0.1132   -4.0509 H   0  0  0  0  0  0  0  0  0  0  0  0
    6.9693   -0.2958   -5.1495 H   0  0  0  0  0  0  0  0  0  0  0  0
    4.1306    1.9761   -3.4237 H   0  0  0  0  0  0  0  0  0  0  0  0
    4.5095    1.9347   -5.8742 H   0  0  0  0  0  0  0  0  0  0  0  0
    3.9594   -0.1011   -7.1858 H   0  0  0  0  0  0  0  0  0  0  0  0
    2.9967   -2.0872   -6.0505 H   0  0  0  0  0  0  0  0  0  0  0  0
    2.5710   -2.0364   -3.6041 H   0  0  0  0  0  0  0  0  0  0  0  0
    0.5529    0.0101   -3.2739 H   0  0  0  0  0  0  0  0  0  0  0  0
   -2.4368   -1.4229   -0.1489 H   0  0  0  0  0  0  0  0  0  0  0  0
   -4.8537   -1.3431   -0.6978 H   0  0  0  0  0  0  0  0  0  0  0  0
   -5.6736    0.1584   -2.4947 H   0  0  0  0  0  0  0  0  0  0  0  0
   -4.0752    1.5872   -3.7473 H   0  0  0  0  0  0  0  0  0  0  0  0
   -1.6539    1.5214   -3.1974 H   0  0  0  0  0  0  0  0  0  0  0  0
  1 26  1  0  0  0  0
  2  1  1  0  0  0  0
  2  3  2  0  0  0  0
  4  2  1  0  0  0  0
  5  4  2  0  0  0  0
  5  6  1  0  0  0  0
  6 28  1  0  0  0  0
  6 27  1  0  0  0  0
  7  6  1  0  0  0  0
  7 30  1  0  0  0  0
  8  7  1  0  0  0  0
  9  8  2  0  0  0  0
 10  8  1  0  0  0  0
 11 32  1  0  0  0  0
 11 10  1  0  0  0  0
 12  5  1  0  0  0  0
 13 34  1  0  0  0  0
 13 12  1  0  0  0  0
 14 13  2  0  0  0  0
 15 16  2  0  0  0  0
 15 14  1  0  0  0  0
 16 17  1  0  0  0  0
 17 38  1  0  0  0  0
 17 12  2  0  0  0  0
 18  4  1  0  0  0  0
 18 19  2  0  0  0  0
 19  1  1  0  0  0  0
 20 19  1  0  0  0  0
 20 21  2  0  0  0  0
 21 40  1  0  0  0  0
 22 21  1  0  0  0  0
 22 41  1  0  0  0  0
 23 22  2  0  0  0  0
 24 25  2  0  0  0  0
 24 23  1  0  0  0  0
 25 20  1  0  0  0  0
 29  7  1  0  0  0  0
 31 11  1  0  0  0  0
 33 11  1  0  0  0  0
 35 14  1  0  0  0  0
 36 15  1  0  0  0  0
 37 16  1  0  0  0  0
 39 18  1  0  0  0  0
 42 23  1  0  0  0  0
 43 24  1  0  0  0  0
 44 25  1  0  0  0  0
M  END
$$$$
