
     RDKit          3D

 44 46  0  0  0  0  0  0  0  0999 V2000
    0.2949   -0.2565   -0.1861 N   0  0  0  0  0  0  0  0  0  0  0  0
    1.6591   -0.0087   -0.1642 C   0  0  0  0  0  0  0  0  0  0  0  0
    2.3617   -0.0777    0.8291 O   0  0  0  0  0  0  0  0  0  0  0  0
    2.0106    0.3171   -1.5968 C   0  0  0  0  0  0  0  0  0  0  0  0
    3.2692    0.6216   -2.0380 C   0  0  0  0  0  0  0  0  0  0  0  0
    4.4286    0.7647   -1.0821 C   0  0  0  0  0  0  0  0  0  0  0  0
    5.2415   -0.5443   -0.9621 C   0  0  0  0  0  0  0  0  0  0  0  0
    5.9519   -0.8617   -2.2577 C   0  0  0  0  0  0  0  0  0  0  0  0
    6.8429   -0.1970   -2.7296 O   0  0  0  0  0  0  0  0  0  0  0  0
    5.4498   -1.9556   -2.8603 O   0  0  0  0  0  0  0  0  0  0  0  0
    6.0042   -2.2694   -4.1379 C   0  0  0  0  0  0  0  0  0  0  0  0
    3.5583    0.7538   -3.4852 C   0  0  0  0  0  0  0  0  0  0  0  0
    4.3687    1.7936   -3.9771 C   0  0  0  0  0  0  0  0  0  0  0  0
    4.6573    1.8946   -5.3377 C   0  0  0  0  0  0  0  0  0  0  0  0
    4.1603    0.9459   -6.2356 C   0  0  0  0  0  0  0  0  0  0  0  0
    3.3722   -0.1067   -5.7600 C   0  0  0  0  0  0  0  0  0  0  0  0
    3.0733   -0.2010   -4.4012 C   0  0  0  0  0  0  0  0  0  0  0  0
    0.7607    0.2488   -2.3344 C   0  0  0  0  0  0  0  0  0  0  0  0
   -0.2450   -0.0763   -1.4679 C   0  0  0  0  0  0  0  0  0  0  0  0
   -1.6729   -0.2554   -1.7251 C   0  0  0  0  0  0  0  0  0  0  0  0
   -2.4905   -0.9764   -0.8340 C   0  0  0  0  0  0  0  0  0  0  0  0
   -3.8508   -1.1500   -1.0931 C   0  0  0  0  0  0  0  0  0  0  0  0
   -4.4219   -0.6091   -2.2471 C   0  0  0  0  0  0  0  0  0  0  0  0
   -3.6198    0.1088   -3.1422 C   0  0  0  0  0  0  0  0  0  0  0  0
   -2.2632    0.2865   -2.8845 C   0  0  0  0  0  0  0  0  0  0  0  0
   -0.2344   -0.3978    0.6638 H   0  0  0  0  0  0  0  0  0  0  0  0
    4.0678    1.0295   -0.0831 H   0  0  0  0  0  0  0  0  0  0  0  0
    5.1109    1.5507   -1.4391 H   0  0  0  0  0  0  0  0  0  0  0  0
    4.5858   -1.3711   -0.6619 H   0  0  0  0  0  0  0  0  0  0  0  0
    6.0127   -0.4070   -0.1887 H   0  0  0  0  0  0  0  0  0  0  0  0
    5.4965   -3.1811   -4.4757 H   0  0  0  0  0  0  0  0  0  0  0  0
    7.0885   -2.4387   -4.0620 H   0  0  0  0  0  0  0  0  0  0  0  0
    5.8233   -1.4475   -4.8460 H   0  0  0  0  0  0  0  0  0  0  0  0
    4.7691    2.5389   -3.2883 H   0  0  0  0  0  0  0  0  0  0  0  0
    5.2807    2.7161   -5.6979 H   0  0  0  0  0  0  0  0  0  0  0  0
    4.3950    1.0205   -7.3001 H   0  0  0  0  0  0  0  0  0  0  0  0
    2.9967   -0.8660   -6.4504 H   0  0  0  0  0  0  0  0  0  0  0  0
    2.4904   -1.0440   -4.0285 H   0  0  0  0  0  0  0  0  0  0  0  0
    0.6383    0.4302   -3.3972 H   0  0  0  0  0  0  0  0  0  0  0  0
   -2.0574   -1.4322    0.0590 H   0  0  0  0  0  0  0  0  0  0  0  0
   -4.4662   -1.7171   -0.3908 H   0  0  0  0  0  0  0  0  0  0  0  0
   -5.4871   -0.7432   -2.4489 H   0  0  0  0  0  0  0  0  0  0  0  0
   -4.0595    0.5413   -4.0441 H   0  0  0  0  0  0  0  0  0  0  0  0
   -1.6510    0.8682   -3.5757 H   0  0  0  0  0  0  0  0  0  0  0  0
  1  2  1  0
  1 19  1  0
  1 26  1  0
  2  3  2  0
  2  4  1  0
  4  5  2  0
  4 18  1  0
  5  6  1  0
  5 12  1  0
  6  7  1  0
  6 27  1  0
  6 28  1  0
  7  8  1  0
  7 29  1  0
  7 30  1  0
  8  9  2  0
  8 10  1  0
 10 11  1  0
 11 31  1  0
 11 32  1  0
 11 33  1  0
 12 13  2  0
 12 17  1  0
 13 14  1  0
 13 34  1  0
 14 15  2  0
 14 35  1  0
 15 16  1  0
 15 36  1  0
 16 17  2  0
 16 37  1  0
 17 38  1  0
 18 19  2  0
 18 39  1  0
 19 20  1  0
 20 21  2  0
 20 25  1  0
 21 22  1  0
 21 40  1  0
 22 23  2  0
 22 41  1  0
 23 24  1  0
 23 42  1  0
 24 25  2  0
 24 43  1  0
 25 44  1  0
M  END

