44
rmsd143.gzmat
N          0.00000        0.00000        0.00000
C          1.41620        0.00000        0.00000
O          2.06730        0.00000        1.01260
C          1.82840        0.00700       -1.43940
C          3.08960       -0.00360       -1.89780
C          4.28620       -0.03160       -1.00240
C          4.58400        1.38050       -0.48480
C          5.93030        1.40640        0.17200
O          6.80970        0.58830        0.10490
O          6.05590        2.55470        0.89000
C          7.28580        2.72570        1.58560
C          3.36860        0.01550       -3.34190
C          3.11250        1.17040       -4.08460
C          3.38740        1.18970       -5.44970
C          3.90710        0.05690       -6.07410
C          4.15300       -1.09790       -5.33280
C          3.88850       -1.12060       -3.96580
C          0.58410        0.00460       -2.20560
C         -0.46940       -0.00840       -1.33780
C         -1.89390       -0.02480       -1.63780
C         -2.36950       -0.89600       -2.62330
C         -3.72400       -0.90680       -2.94440
C         -4.60420       -0.04860       -2.28670
C         -4.13010        0.81880       -1.30350
C         -2.77670        0.83190       -0.97550
H         -0.58210       -0.05000        0.80620
H          5.17600       -0.44230       -1.53040
H          4.11870       -0.71630       -0.13660
H          3.79480        1.69990        0.23710
H          4.55730        2.12430       -1.30950
H          8.11970        2.75850        0.87680
H          7.42820        1.91290        2.30590
H          7.15270        3.68830        2.09170
H          2.69490        2.05020       -3.59710
H          3.19440        2.08970       -6.03050
H          4.12160        0.07350       -7.14070
H          4.55350       -1.98270       -5.82420
H          4.07880       -2.02310       -3.38660
H          0.55120        0.01230       -3.27530
H         -1.67730       -1.56520       -3.13510
H         -4.09630       -1.58550       -3.71000
H         -5.66260       -0.05580       -2.54230
H         -4.81870        1.48980       -0.79270
H         -2.40550        1.51890       -0.21600
