rmsd138.gzmat
 OpenBabel08211713383D

 44 46  0  0  0  0  0  0  0  0999 V2000
    0.0000    0.0000    0.0000 N   0  0  0  0  0  0  0  0  0  0  0  0
    1.4148    0.0000    0.0000 C   0  0  0  0  0  0  0  0  0  0  0  0
    2.0615    0.0000    1.0163 O   0  0  0  0  0  0  0  0  0  0  0  0
    1.8284   -0.0013   -1.4395 C   0  0  0  0  0  0  0  0  0  0  0  0
    3.0894   -0.0124   -1.9005 C   0  0  0  0  0  0  0  0  0  0  0  0
    4.2862   -0.0254   -1.0002 C   0  0  0  0  0  0  0  0  0  0  0  0
    4.7905   -1.4597   -0.7985 C   0  0  0  0  0  0  0  0  0  0  0  0
    5.5761   -1.8999   -1.9993 C   0  0  0  0  0  0  0  0  0  0  0  0
    6.5588   -1.3883   -2.4674 O   0  0  0  0  0  0  0  0  0  0  0  0
    5.0189   -3.0251   -2.5182 O   0  0  0  0  0  0  0  0  0  0  0  0
    5.6272   -3.5392   -3.6976 C   0  0  0  0  0  0  0  0  0  0  0  0
    3.3696   -0.0335   -3.3441 C   0  0  0  0  0  0  0  0  0  0  0  0
    4.0446    1.0313   -3.9449 C   0  0  0  0  0  0  0  0  0  0  0  0
    4.3289    0.9905   -5.3076 C   0  0  0  0  0  0  0  0  0  0  0  0
    3.9434   -0.1109   -6.0700 C   0  0  0  0  0  0  0  0  0  0  0  0
    3.2605   -1.1688   -5.4726 C   0  0  0  0  0  0  0  0  0  0  0  0
    2.9695   -1.1311   -4.1114 C   0  0  0  0  0  0  0  0  0  0  0  0
    0.5825    0.0180   -2.2051 C   0  0  0  0  0  0  0  0  0  0  0  0
   -0.4716    0.0227   -1.3380 C   0  0  0  0  0  0  0  0  0  0  0  0
   -1.8987    0.0489   -1.6226 C   0  0  0  0  0  0  0  0  0  0  0  0
   -2.7900   -0.7452   -0.8948 C   0  0  0  0  0  0  0  0  0  0  0  0
   -4.1506   -0.7076   -1.1889 C   0  0  0  0  0  0  0  0  0  0  0  0
   -4.6242    0.1191   -2.2071 C   0  0  0  0  0  0  0  0  0  0  0  0
   -3.7355    0.9083   -2.9357 C   0  0  0  0  0  0  0  0  0  0  0  0
   -2.3742    0.8752   -2.6463 C   0  0  0  0  0  0  0  0  0  0  0  0
   -0.5824    0.0413    0.8064 H   0  0  0  0  0  0  0  0  0  0  0  0
    4.0440    0.4192   -0.0043 H   0  0  0  0  0  0  0  0  0  0  0  0
    5.1008    0.6112   -1.4128 H   0  0  0  0  0  0  0  0  0  0  0  0
    3.9427   -2.1478   -0.5867 H   0  0  0  0  0  0  0  0  0  0  0  0
    5.4458   -1.5111    0.0992 H   0  0  0  0  0  0  0  0  0  0  0  0
    5.0743   -4.4672   -3.8797 H   0  0  0  0  0  0  0  0  0  0  0  0
    6.6912   -3.7344   -3.5278 H   0  0  0  0  0  0  0  0  0  0  0  0
    5.4979   -2.8250   -4.5187 H   0  0  0  0  0  0  0  0  0  0  0  0
    4.3491    1.8911   -3.3501 H   0  0  0  0  0  0  0  0  0  0  0  0
    4.8590    1.8176   -5.7762 H   0  0  0  0  0  0  0  0  0  0  0  0
    4.1785   -0.1446   -7.1319 H   0  0  0  0  0  0  0  0  0  0  0  0
    2.9515   -2.0241   -6.0699 H   0  0  0  0  0  0  0  0  0  0  0  0
    2.4384   -1.9584   -3.6393 H   0  0  0  0  0  0  0  0  0  0  0  0
    0.5512    0.0229   -3.2751 H   0  0  0  0  0  0  0  0  0  0  0  0
   -2.4222   -1.4027   -0.1085 H   0  0  0  0  0  0  0  0  0  0  0  0
   -4.8453   -1.3269   -0.6243 H   0  0  0  0  0  0  0  0  0  0  0  0
   -5.6887    0.1473   -2.4334 H   0  0  0  0  0  0  0  0  0  0  0  0
   -4.1059    1.5526   -3.7315 H   0  0  0  0  0  0  0  0  0  0  0  0
   -1.6770    1.4945   -3.2112 H   0  0  0  0  0  0  0  0  0  0  0  0
  1  2  1  0  0  0  0
  1 26  1  0  0  0  0
  2  3  2  0  0  0  0
  4  2  1  0  0  0  0
  5  4  2  0  0  0  0
  5  6  1  0  0  0  0
  6  7  1  0  0  0  0
  6 27  1  0  0  0  0
  7 29  1  0  0  0  0
  7 30  1  0  0  0  0
  8  7  1  0  0  0  0
  9  8  2  0  0  0  0
 10  8  1  0  0  0  0
 11 32  1  0  0  0  0
 11 10  1  0  0  0  0
 12  5  1  0  0  0  0
 13 34  1  0  0  0  0
 13 12  1  0  0  0  0
 14 13  2  0  0  0  0
 15 16  2  0  0  0  0
 15 14  1  0  0  0  0
 16 17  1  0  0  0  0
 17 38  1  0  0  0  0
 17 12  2  0  0  0  0
 18  4  1  0  0  0  0
 18 19  2  0  0  0  0
 19  1  1  0  0  0  0
 20 19  1  0  0  0  0
 20 21  2  0  0  0  0
 21 40  1  0  0  0  0
 22 21  1  0  0  0  0
 22 41  1  0  0  0  0
 23 22  2  0  0  0  0
 24 25  2  0  0  0  0
 24 23  1  0  0  0  0
 25 20  1  0  0  0  0
 28  6  1  0  0  0  0
 31 11  1  0  0  0  0
 33 11  1  0  0  0  0
 35 14  1  0  0  0  0
 36 15  1  0  0  0  0
 37 16  1  0  0  0  0
 39 18  1  0  0  0  0
 42 23  1  0  0  0  0
 43 24  1  0  0  0  0
 44 25  1  0  0  0  0
M  END
$$$$
