rmsd200.gzmat
 OpenBabel08211713383D

 44 46  0  0  0  0  0  0  0  0999 V2000
    0.0000    0.0000    0.0000 N   0  0  0  0  0  0  0  0  0  0  0  0
    1.4151    0.0000    0.0000 C   0  0  0  0  0  0  0  0  0  0  0  0
    2.0658    0.0000    1.0131 O   0  0  0  0  0  0  0  0  0  0  0  0
    1.8279   -0.0111   -1.4396 C   0  0  0  0  0  0  0  0  0  0  0  0
    3.0917    0.0053   -1.8904 C   0  0  0  0  0  0  0  0  0  0  0  0
    4.2828    0.0308   -0.9861 C   0  0  0  0  0  0  0  0  0  0  0  0
    4.5392   -1.3727   -0.4244 C   0  0  0  0  0  0  0  0  0  0  0  0
    5.8814   -1.4200    0.2395 C   0  0  0  0  0  0  0  0  0  0  0  0
    6.7844   -0.6299    0.1567 O   0  0  0  0  0  0  0  0  0  0  0  0
    5.9688   -2.5519    0.9885 O   0  0  0  0  0  0  0  0  0  0  0  0
    7.1931   -2.7506    1.6862 C   0  0  0  0  0  0  0  0  0  0  0  0
    3.3898   -0.0120   -3.3306 C   0  0  0  0  0  0  0  0  0  0  0  0
    3.8833    1.1375   -3.9514 C   0  0  0  0  0  0  0  0  0  0  0  0
    4.1823    1.1139   -5.3113 C   0  0  0  0  0  0  0  0  0  0  0  0
    3.9950   -0.0544   -6.0484 C   0  0  0  0  0  0  0  0  0  0  0  0
    3.4979   -1.1992   -5.4277 C   0  0  0  0  0  0  0  0  0  0  0  0
    3.1912   -1.1802   -4.0691 C   0  0  0  0  0  0  0  0  0  0  0  0
    0.5832   -0.0329   -2.2056 C   0  0  0  0  0  0  0  0  0  0  0  0
   -0.4707   -0.0249   -1.3379 C   0  0  0  0  0  0  0  0  0  0  0  0
   -1.8986   -0.0372   -1.6216 C   0  0  0  0  0  0  0  0  0  0  0  0
   -2.3928   -0.8967   -2.6078 C   0  0  0  0  0  0  0  0  0  0  0  0
   -3.7556   -0.9144   -2.8927 C   0  0  0  0  0  0  0  0  0  0  0  0
   -4.6258   -0.0762   -2.1974 C   0  0  0  0  0  0  0  0  0  0  0  0
   -4.1324    0.7860   -1.2191 C   0  0  0  0  0  0  0  0  0  0  0  0
   -2.7706    0.8082   -0.9298 C   0  0  0  0  0  0  0  0  0  0  0  0
   -0.5833   -0.0251    0.8068 H   0  0  0  0  0  0  0  0  0  0  0  0
    4.1269    0.7463   -0.1438 H   0  0  0  0  0  0  0  0  0  0  0  0
    5.1882    0.4020   -1.5174 H   0  0  0  0  0  0  0  0  0  0  0  0
    4.4929   -2.1413   -1.2250 H   0  0  0  0  0  0  0  0  0  0  0  0
    3.7383   -1.6481    0.3039 H   0  0  0  0  0  0  0  0  0  0  0  0
    7.9844   -2.9997    0.9723 H   0  0  0  0  0  0  0  0  0  0  0  0
    6.9684   -3.5946    2.3483 H   0  0  0  0  0  0  0  0  0  0  0  0
    7.4639   -1.8575    2.2601 H   0  0  0  0  0  0  0  0  0  0  0  0
    4.0290    2.0497   -3.3745 H   0  0  0  0  0  0  0  0  0  0  0  0
    4.5642    2.0087   -5.7995 H   0  0  0  0  0  0  0  0  0  0  0  0
    4.2371   -0.0725   -7.1091 H   0  0  0  0  0  0  0  0  0  0  0  0
    3.3484   -2.1090   -6.0053 H   0  0  0  0  0  0  0  0  0  0  0  0
    2.7967   -2.0717   -3.5845 H   0  0  0  0  0  0  0  0  0  0  0  0
    0.5511   -0.0348   -3.2751 H   0  0  0  0  0  0  0  0  0  0  0  0
   -1.7106   -1.5524   -3.1482 H   0  0  0  0  0  0  0  0  0  0  0  0
   -4.1414   -1.5838   -3.6599 H   0  0  0  0  0  0  0  0  0  0  0  0
   -5.6914   -0.0936   -2.4196 H   0  0  0  0  0  0  0  0  0  0  0  0
   -4.8122    1.4453   -0.6818 H   0  0  0  0  0  0  0  0  0  0  0  0
   -2.3852    1.4939   -0.1763 H   0  0  0  0  0  0  0  0  0  0  0  0
  1 26  1  0  0  0  0
  2  1  1  0  0  0  0
  2  3  2  0  0  0  0
  4  2  1  0  0  0  0
  5  4  2  0  0  0  0
  5  6  1  0  0  0  0
  6  7  1  0  0  0  0
  6 27  1  0  0  0  0
  7  8  1  0  0  0  0
  7 30  1  0  0  0  0
  8 10  1  0  0  0  0
  9  8  2  0  0  0  0
 10 11  1  0  0  0  0
 11 33  1  0  0  0  0
 11 32  1  0  0  0  0
 12  5  1  0  0  0  0
 13 34  1  0  0  0  0
 13 12  1  0  0  0  0
 14 13  2  0  0  0  0
 15 16  2  0  0  0  0
 15 14  1  0  0  0  0
 16 17  1  0  0  0  0
 17 38  1  0  0  0  0
 17 12  2  0  0  0  0
 18  4  1  0  0  0  0
 18 19  2  0  0  0  0
 19  1  1  0  0  0  0
 20 19  1  0  0  0  0
 20 25  2  0  0  0  0
 21 20  1  0  0  0  0
 22 21  2  0  0  0  0
 22 23  1  0  0  0  0
 23 24  2  0  0  0  0
 24 25  1  0  0  0  0
 24 43  1  0  0  0  0
 25 44  1  0  0  0  0
 28  6  1  0  0  0  0
 29  7  1  0  0  0  0
 31 11  1  0  0  0  0
 35 14  1  0  0  0  0
 36 15  1  0  0  0  0
 37 16  1  0  0  0  0
 39 18  1  0  0  0  0
 40 21  1  0  0  0  0
 41 22  1  0  0  0  0
 42 23  1  0  0  0  0
M  END
$$$$
