rmsd231.gzmat
 OpenBabel08211713403D

 49 51  0  0  1  0  0  0  0  0999 V2000
    0.0000    0.0000    0.0000 S   0  0  0  0  0  0  0  0  0  0  0  0
    1.4432    0.0000    0.0000 O   0  0  0  0  0  0  0  0  0  0  0  0
   -0.7532    0.0000   -1.2374 O   0  0  0  0  0  0  0  0  0  0  0  0
   -0.5268    1.4477    0.8527 N   0  0  0  0  0  0  0  0  0  0  0  0
    0.5157    2.1915    1.5879 C   0  0  0  0  0  0  0  0  0  0  0  0
    0.8684    1.4225    2.8368 C   0  0  0  0  0  0  0  0  0  0  0  0
    2.0968    0.7692    2.9350 C   0  0  0  0  0  0  0  0  0  0  0  0
    2.4215    0.0740    4.0983 C   0  0  0  0  0  0  0  0  0  0  0  0
    1.5173    0.0234    5.1576 C   0  0  0  0  0  0  0  0  0  0  0  0
    0.2868    0.6717    5.0555 C   0  0  0  0  0  0  0  0  0  0  0  0
   -0.0371    1.3741    3.8977 C   0  0  0  0  0  0  0  0  0  0  0  0
   -1.5640    2.2611    0.2167 C   0  0  2  0  0  0  0  0  0  0  0  0
   -2.2042    1.5931   -0.4532 H   0  0  0  0  0  0  0  0  0  0  0  0
   -1.0483    3.4065   -0.6232 C   0  0  0  0  0  0  0  0  0  0  0  0
   -0.8437    4.6876   -0.1142 C   0  0  0  0  0  0  0  0  0  0  0  0
   -0.3497    5.6956   -0.9408 C   0  0  0  0  0  0  0  0  0  0  0  0
   -0.0527    5.4254   -2.2746 C   0  0  0  0  0  0  0  0  0  0  0  0
   -0.2542    4.1435   -2.7841 C   0  0  0  0  0  0  0  0  0  0  0  0
   -0.7537    3.1371   -1.9634 C   0  0  0  0  0  0  0  0  0  0  0  0
   -2.4658    2.7495    1.3520 C   0  0  0  0  0  0  0  0  0  0  0  0
   -2.2242    3.4773    2.2766 O   0  0  0  0  0  0  0  0  0  0  0  0
   -3.7011    2.2103    1.1949 O   0  0  0  0  0  0  0  0  0  0  0  0
   -0.5949   -1.2705    1.0396 C   0  0  0  0  0  0  0  0  0  0  0  0
   -1.9351   -1.6520    0.9723 C   0  0  0  0  0  0  0  0  0  0  0  0
   -2.4240   -2.6292    1.8340 C   0  0  0  0  0  0  0  0  0  0  0  0
   -1.5739   -3.2337    2.7655 C   0  0  0  0  0  0  0  0  0  0  0  0
   -0.2285   -2.8596    2.8186 C   0  0  0  0  0  0  0  0  0  0  0  0
    0.2587   -1.8804    1.9578 C   0  0  0  0  0  0  0  0  0  0  0  0
   -2.1028   -4.2592    3.7069 C   0  0  0  0  0  0  0  0  0  0  0  0
    0.1368    3.2040    1.8764 H   0  0  0  0  0  0  0  0  0  0  0  0
    1.4175    2.3787    0.9558 H   0  0  0  0  0  0  0  0  0  0  0  0
    2.7948    0.7910    2.0947 H   0  0  0  0  0  0  0  0  0  0  0  0
    3.3823   -0.4291    4.1794 H   0  0  0  0  0  0  0  0  0  0  0  0
    1.7710   -0.5206    6.0640 H   0  0  0  0  0  0  0  0  0  0  0  0
   -0.4194    0.6316    5.8809 H   0  0  0  0  0  0  0  0  0  0  0  0
   -0.9969    1.8864    3.8129 H   0  0  0  0  0  0  0  0  0  0  0  0
   -1.0655    4.9190    0.9299 H   0  0  0  0  0  0  0  0  0  0  0  0
   -0.1950    6.6956   -0.5398 H   0  0  0  0  0  0  0  0  0  0  0  0
    0.3369    6.2119   -2.9175 H   0  0  0  0  0  0  0  0  0  0  0  0
   -0.0191    3.9276   -3.8246 H   0  0  0  0  0  0  0  0  0  0  0  0
   -0.9071    2.1301   -2.3691 H   0  0  0  0  0  0  0  0  0  0  0  0
   -4.3422    2.4615    1.9025 H   0  0  0  0  0  0  0  0  0  0  0  0
   -2.6156   -1.1959    0.2443 H   0  0  0  0  0  0  0  0  0  0  0  0
   -3.4697   -2.9215    1.7835 H   0  0  0  0  0  0  0  0  0  0  0  0
    0.4392   -3.3268    3.5385 H   0  0  0  0  0  0  0  0  0  0  0  0
    1.3171   -1.5945    2.0207 H   0  0  0  0  0  0  0  0  0  0  0  0
   -2.9250   -4.8455    3.2732 H   0  0  0  0  0  0  0  0  0  0  0  0
   -2.4939   -3.7832    4.6205 H   0  0  0  0  0  0  0  0  0  0  0  0
   -1.3331   -4.9763    4.0251 H   0  0  0  0  0  0  0  0  0  0  0  0
  1  2  2  0  0  0  0
  1  4  1  0  0  0  0
  1 23  1  0  0  0  0
  3  1  2  0  0  0  0
  4  5  1  0  0  0  0
  5 30  1  0  0  0  0
  5  6  1  0  0  0  0
  6  7  2  0  0  0  0
  6 11  1  0  0  0  0
  7  8  1  0  0  0  0
  8 33  1  0  0  0  0
  8  9  2  0  0  0  0
  9 34  1  0  0  0  0
 10  9  1  0  0  0  0
 10 35  1  0  0  0  0
 11 10  2  0  0  0  0
 12 13  1  6  0  0  0
 12  4  1  0  0  0  0
 12 20  1  0  0  0  0
 14 15  1  0  0  0  0
 14 12  1  0  0  0  0
 15 37  1  0  0  0  0
 16 38  1  0  0  0  0
 16 15  2  0  0  0  0
 17 16  1  0  0  0  0
 18 17  2  0  0  0  0
 18 19  1  0  0  0  0
 19 14  2  0  0  0  0
 20 21  2  0  0  0  0
 22 20  1  0  0  0  0
 22 42  1  0  0  0  0
 23 28  1  0  0  0  0
 24 23  2  0  0  0  0
 24 25  1  0  0  0  0
 25 26  2  0  0  0  0
 26 27  1  0  0  0  0
 26 29  1  0  0  0  0
 27 45  1  0  0  0  0
 28 46  1  0  0  0  0
 28 27  2  0  0  0  0
 29 49  1  0  0  0  0
 29 48  1  0  0  0  0
 31  5  1  0  0  0  0
 32  7  1  0  0  0  0
 36 11  1  0  0  0  0
 39 17  1  0  0  0  0
 40 18  1  0  0  0  0
 41 19  1  0  0  0  0
 43 24  1  0  0  0  0
 44 25  1  0  0  0  0
 47 29  1  0  0  0  0
M  END
$$$$
