49
rmsd232.gzmat
S          0.00000        0.00000        0.00000
O          1.44390        0.00000        0.00000
O         -0.74170        0.00000       -1.24280
N         -0.54900        1.44710        0.84500
C          0.42610        2.05180        1.77570
C          0.50500        1.19120        3.01260
C          1.65760        0.45430        3.28390
C          1.72180       -0.33720        4.42910
C          0.63350       -0.40040        5.29740
C         -0.51920        0.33580        5.02490
C         -0.58190        1.13650        3.88770
C         -1.38260        2.38110        0.08700
H         -2.00450        1.78540       -0.66630
C         -0.62440        3.45100       -0.66330
C         -0.26390        4.66520       -0.08120
C          0.45550        5.60440       -0.81770
C          0.81350        5.33450       -2.13660
C          0.45170        4.12130       -2.72080
C         -0.26470        3.18060       -1.98680
C         -2.36620        2.99980        1.08110
O         -2.16550        3.66990        2.05750
O         -3.63060        2.67970        0.70740
C         -0.56550       -1.27070        1.05800
C         -1.91590       -1.35960        1.39570
C         -2.34280       -2.32140        2.30580
C         -1.42260       -3.20560        2.87700
C         -0.07560       -3.13380        2.51220
C          0.35180       -2.16500        1.60870
C         -1.88270       -4.22270        3.86280
H          0.09910        3.08090        2.06810
H          1.42930        2.18280        1.30180
H          2.50300        0.48670        2.59450
H          2.62170       -0.90870        4.64350
H          0.68240       -1.02310        6.18700
H         -1.36910        0.28570        5.70070
H         -1.47760        1.72080        3.67360
H         -0.54050        4.89620        0.94970
H          0.73850        6.54970       -0.35880
H          1.37460        6.06940       -2.71040
H          0.73100        3.90780       -3.75080
H         -0.53710        2.22410       -2.44630
H         -4.32990        3.04560        1.30050
H         -2.65260       -0.67590        0.96160
H         -3.39370       -2.38110        2.57820
H          0.64370       -3.82450        2.94520
H          1.41680       -2.10940        1.35080
H         -2.33130       -5.08960        3.35230
H         -2.64550       -3.82110        4.54560
H         -1.06560       -4.60600        4.48960
