
     RDKit          3D

 49 51  0  0  0  0  0  0  0  0999 V2000
   -0.3127    0.0699   -0.0680 S   0  0  0  0  0  0  0  0  0  0  0  0
    1.1335    0.1263   -0.3003 O   0  0  0  0  0  0  0  0  0  0  0  0
   -1.2434   -0.1305   -1.1892 O   0  0  0  0  0  0  0  0  0  0  0  0
   -0.8055    1.4917    0.7031 N   0  0  0  0  0  0  0  0  0  0  0  0
    0.1839    2.1465    1.5704 C   0  0  0  0  0  0  0  0  0  0  0  0
    0.6113    1.2764    2.7298 C   0  0  0  0  0  0  0  0  0  0  0  0
    1.9445    0.8789    2.8707 C   0  0  0  0  0  0  0  0  0  0  0  0
    2.3298    0.0533    3.9315 C   0  0  0  0  0  0  0  0  0  0  0  0
    1.3788   -0.3892    4.8526 C   0  0  0  0  0  0  0  0  0  0  0  0
    0.0420    0.0018    4.7130 C   0  0  0  0  0  0  0  0  0  0  0  0
   -0.3398    0.8327    3.6610 C   0  0  0  0  0  0  0  0  0  0  0  0
   -1.7849    2.3230    0.0185 C   0  0  2  0  0  0  0  0  0  0  0  0
   -2.2738    1.6788   -0.7272 H   0  0  0  0  0  0  0  0  0  0  0  0
   -1.1456    3.4852   -0.7333 C   0  0  0  0  0  0  0  0  0  0  0  0
   -1.1641    4.8003   -0.2560 C   0  0  0  0  0  0  0  0  0  0  0  0
   -0.4872    5.8127   -0.9423 C   0  0  0  0  0  0  0  0  0  0  0  0
    0.2185    5.5163   -2.1101 C   0  0  0  0  0  0  0  0  0  0  0  0
    0.2456    4.2023   -2.5889 C   0  0  0  0  0  0  0  0  0  0  0  0
   -0.4312    3.1927   -1.9045 C   0  0  0  0  0  0  0  0  0  0  0  0
   -2.8941    2.7254    0.9854 C   0  0  0  0  0  0  0  0  0  0  0  0
   -2.9386    2.4664    2.1623 O   0  0  0  0  0  0  0  0  0  0  0  0
   -3.8713    3.3923    0.3496 O   0  0  0  0  0  0  0  0  0  0  0  0
   -0.6332   -1.1899    1.1510 C   0  0  0  0  0  0  0  0  0  0  0  0
   -1.9409   -1.3865    1.5982 C   0  0  0  0  0  0  0  0  0  0  0  0
   -2.1776   -2.3398    2.5843 C   0  0  0  0  0  0  0  0  0  0  0  0
   -1.1265   -3.0978    3.1282 C   0  0  0  0  0  0  0  0  0  0  0  0
    0.1714   -2.8895    2.6401 C   0  0  0  0  0  0  0  0  0  0  0  0
    0.4277   -1.9394    1.6527 C   0  0  0  0  0  0  0  0  0  0  0  0
   -1.3778   -4.0787    4.2429 C   0  0  0  0  0  0  0  0  0  0  0  0
   -0.3107    3.0482    1.9570 H   0  0  0  0  0  0  0  0  0  0  0  0
    1.0608    2.4711    0.9882 H   0  0  0  0  0  0  0  0  0  0  0  0
    2.6795    1.1990    2.1286 H   0  0  0  0  0  0  0  0  0  0  0  0
    3.3740   -0.2534    4.0302 H   0  0  0  0  0  0  0  0  0  0  0  0
    1.6758   -1.0428    5.6766 H   0  0  0  0  0  0  0  0  0  0  0  0
   -0.7074   -0.3481    5.4273 H   0  0  0  0  0  0  0  0  0  0  0  0
   -1.3810    1.1339    3.5317 H   0  0  0  0  0  0  0  0  0  0  0  0
   -1.7136    5.0475    0.6552 H   0  0  0  0  0  0  0  0  0  0  0  0
   -0.5109    6.8360   -0.5600 H   0  0  0  0  0  0  0  0  0  0  0  0
    0.7484    6.3071   -2.6464 H   0  0  0  0  0  0  0  0  0  0  0  0
    0.7971    3.9620   -3.5008 H   0  0  0  0  0  0  0  0  0  0  0  0
   -0.4003    2.1631   -2.2684 H   0  0  0  0  0  0  0  0  0  0  0  0
   -4.5520    3.6017    1.0123 H   0  0  0  0  0  0  0  0  0  0  0  0
   -2.7571   -0.7856    1.1951 H   0  0  0  0  0  0  0  0  0  0  0  0
   -3.1965   -2.4945    2.9483 H   0  0  0  0  0  0  0  0  0  0  0  0
    1.0013   -3.4690    3.0518 H   0  0  0  0  0  0  0  0  0  0  0  0
    1.4370   -1.7529    1.2872 H   0  0  0  0  0  0  0  0  0  0  0  0
   -2.4211   -4.4268    4.2513 H   0  0  0  0  0  0  0  0  0  0  0  0
   -1.1781   -3.6085    5.2218 H   0  0  0  0  0  0  0  0  0  0  0  0
   -0.7196   -4.9572    4.1645 H   0  0  0  0  0  0  0  0  0  0  0  0
  1  2  2  0
  1  3  2  0
  1  4  1  0
  1 23  1  0
  4  5  1  0
  4 12  1  0
  5  6  1  0
  5 30  1  0
  5 31  1  0
  6  7  2  0
  6 11  1  0
  7  8  1  0
  7 32  1  0
  8  9  2  0
  8 33  1  0
  9 10  1  0
  9 34  1  0
 10 11  2  0
 10 35  1  0
 11 36  1  0
 12 13  1  6
 12 14  1  0
 12 20  1  0
 14 15  2  0
 14 19  1  0
 15 16  1  0
 15 37  1  0
 16 17  2  0
 16 38  1  0
 17 18  1  0
 17 39  1  0
 18 19  2  0
 18 40  1  0
 19 41  1  0
 20 21  2  0
 20 22  1  0
 22 42  1  0
 23 24  2  0
 23 28  1  0
 24 25  1  0
 24 43  1  0
 25 26  2  0
 25 44  1  0
 26 27  1  0
 26 29  1  0
 27 28  2  0
 27 45  1  0
 28 46  1  0
 29 47  1  0
 29 48  1  0
 29 49  1  0
M  END

