49
rmsd231.gzmat
S          0.00000        0.00000        0.00000
O          1.44320        0.00000        0.00000
O         -0.75320        0.00000       -1.23740
N         -0.52680        1.44770        0.85270
C          0.51570        2.19150        1.58790
C          0.86840        1.42250        2.83680
C          2.09680        0.76920        2.93500
C          2.42150        0.07400        4.09830
C          1.51730        0.02340        5.15760
C          0.28680        0.67170        5.05550
C         -0.03710        1.37410        3.89770
C         -1.56400        2.26110        0.21670
H         -2.20420        1.59310       -0.45320
C         -1.04830        3.40650       -0.62320
C         -0.84370        4.68760       -0.11420
C         -0.34970        5.69560       -0.94080
C         -0.05270        5.42540       -2.27460
C         -0.25420        4.14350       -2.78410
C         -0.75370        3.13710       -1.96340
C         -2.46580        2.74950        1.35200
O         -2.22420        3.47730        2.27660
O         -3.70110        2.21030        1.19490
C         -0.59490       -1.27050        1.03960
C         -1.93510       -1.65200        0.97230
C         -2.42400       -2.62920        1.83400
C         -1.57390       -3.23370        2.76550
C         -0.22850       -2.85960        2.81860
C          0.25870       -1.88040        1.95780
C         -2.10280       -4.25920        3.70690
H          0.13680        3.20400        1.87640
H          1.41750        2.37870        0.95580
H          2.79480        0.79100        2.09470
H          3.38230       -0.42910        4.17940
H          1.77100       -0.52060        6.06400
H         -0.41940        0.63160        5.88090
H         -0.99690        1.88640        3.81290
H         -1.06550        4.91900        0.92990
H         -0.19500        6.69560       -0.53980
H          0.33690        6.21190       -2.91750
H         -0.01910        3.92760       -3.82460
H         -0.90710        2.13010       -2.36910
H         -4.34220        2.46150        1.90250
H         -2.61560       -1.19590        0.24430
H         -3.46970       -2.92150        1.78350
H          0.43920       -3.32680        3.53850
H          1.31710       -1.59450        2.02070
H         -2.92500       -4.84550        3.27320
H         -2.49390       -3.78320        4.62050
H         -1.33310       -4.97630        4.02510
