49
rmsd175.gzmat
S          0.00000        0.00000        0.00000
O          1.44340        0.00000        0.00000
O         -0.74350        0.00000       -1.24230
N         -0.54550        1.45250        0.83960
C          0.42420        2.04110        1.78660
C          0.45880        1.19670        3.03600
C          1.63050        0.53540        3.40310
C          1.65840       -0.23340        4.56500
C          0.51580       -0.35020        5.35410
C         -0.65540        0.31140        4.98620
C         -0.68280        1.08990        3.83250
C         -1.33610        2.40720        0.06020
H         -1.95340        1.82840       -0.70940
C         -0.52780        3.45610       -0.66820
C         -0.17650        4.67290       -0.08570
C          0.59080        5.59160       -0.79940
C          1.01110        5.29570       -2.09400
C          0.66020        4.07910       -2.67760
C         -0.10950        3.16180       -1.96850
C         -2.32850        3.05500        1.02620
O         -2.13500        3.69520        2.02420
O         -3.59080        2.81330        0.59190
C         -0.56830       -1.27200        1.05310
C         -1.93560       -1.46570        1.24970
C         -2.37790       -2.43330        2.14600
C         -1.45560       -3.21890        2.84520
C         -0.08810       -3.04100        2.62380
C          0.35360       -2.06730        1.73220
C         -1.93930       -4.23860        3.81710
H          0.11630        3.08080        2.06420
H          1.44000        2.14450        1.33210
H          2.52110        0.61250        2.77870
H          2.57320       -0.74410        4.85530
H          0.53680       -0.95590        6.25650
H         -1.54710        0.22020        5.60110
H         -1.59270        1.61770        3.54420
H         -0.49660        4.92160        0.92820
H          0.86170        6.54120       -0.34200
H          1.61340        6.01230       -2.64890
H          0.99040        3.84390       -3.68760
H         -0.37830        2.20500       -2.42970
H         -4.29380        3.21170        1.15900
H         -2.67380       -0.86320        0.71060
H         -3.44320       -2.57640        2.30780
H          0.63540       -3.65270        3.15680
H          1.43230       -1.93000        1.58380
H         -2.46650       -5.05810        3.30470
H         -2.64470       -3.80380        4.54140
H         -1.12700       -4.69510        4.39900
