24
rmsd1.gzmat
N          0.00000        0.00000        0.00000
C          1.38580        0.00000        0.00000
N          1.99460        0.00000        1.13500
C          3.35630        0.22780        1.36060
C          3.96760        1.44510        1.01980
C          5.30420        1.65280        1.34430
C          6.03300        0.66220        2.00000
C          5.41820       -0.53940        2.35200
C          4.08250       -0.76440        2.04050
S          2.06720        0.08950       -1.69000
C          3.60080       -0.91620       -1.59840
C          3.35280       -2.35350       -1.18390
H         -0.50160       -0.42020       -0.75800
H         -0.46480       -0.03540        0.89420
H          3.39360        2.22200        0.52060
H          5.78190        2.59730        1.08670
H          7.07950        0.82720        2.24240
H          5.98660       -1.30640        2.87620
H          3.59160       -1.69270        2.32330
H          4.33040       -0.43050       -0.91790
H          4.04230       -0.86530       -2.61530
H          2.98550       -2.43300       -0.15050
H          4.28470       -2.93720       -1.22620
H          2.62980       -2.86480       -1.83290
