rmsd26.gzmat
 OpenBabel08211713423D

 24 24  0  0  0  0  0  0  0  0999 V2000
    0.0000    0.0000    0.0000 N   0  0  0  0  0  0  0  0  0  0  0  0
    1.3841    0.0000    0.0000 C   0  0  0  0  0  0  0  0  0  0  0  0
    1.9960    0.0000    1.1335 N   0  0  0  0  0  0  0  0  0  0  0  0
    3.3597    0.2297    1.3475 C   0  0  0  0  0  0  0  0  0  0  0  0
    3.9644    1.4479    0.9981 C   0  0  0  0  0  0  0  0  0  0  0  0
    5.3031    1.6603    1.3098 C   0  0  0  0  0  0  0  0  0  0  0  0
    6.0419    0.6715    1.9573 C   0  0  0  0  0  0  0  0  0  0  0  0
    5.4339   -0.5309    2.3176 C   0  0  0  0  0  0  0  0  0  0  0  0
    4.0951   -0.7588    2.0227 C   0  0  0  0  0  0  0  0  0  0  0  0
    2.0778    0.0887   -1.6873 S   0  0  0  0  0  0  0  0  0  0  0  0
    3.5128   -1.0531   -1.5997 C   0  0  0  0  0  0  0  0  0  0  0  0
    3.1005   -2.5004   -1.4154 C   0  0  0  0  0  0  0  0  0  0  0  0
   -0.5032   -0.3937   -0.7701 H   0  0  0  0  0  0  0  0  0  0  0  0
   -0.4693   -0.0396    0.8914 H   0  0  0  0  0  0  0  0  0  0  0  0
    3.3835    2.2208    0.5003 H   0  0  0  0  0  0  0  0  0  0  0  0
    5.7747    2.6065    1.0463 H   0  0  0  0  0  0  0  0  0  0  0  0
    7.0904    0.8398    2.1881 H   0  0  0  0  0  0  0  0  0  0  0  0
    6.0095   -1.2970    2.8355 H   0  0  0  0  0  0  0  0  0  0  0  0
    3.6080   -1.6860    2.3154 H   0  0  0  0  0  0  0  0  0  0  0  0
    4.2050   -0.7342   -0.7938 H   0  0  0  0  0  0  0  0  0  0  0  0
    4.0646   -0.9111   -2.5514 H   0  0  0  0  0  0  0  0  0  0  0  0
    2.5603   -2.6678   -0.4733 H   0  0  0  0  0  0  0  0  0  0  0  0
    3.9824   -3.1572   -1.3877 H   0  0  0  0  0  0  0  0  0  0  0  0
    2.4607   -2.8625   -2.2312 H   0  0  0  0  0  0  0  0  0  0  0  0
  1  2  1  0  0  0  0
  1 14  1  0  0  0  0
  2  3  2  0  0  0  0
  3  4  1  0  0  0  0
  4  9  2  0  0  0  0
  5  6  2  0  0  0  0
  5  4  1  0  0  0  0
  6  7  1  0  0  0  0
  7 17  1  0  0  0  0
  7  8  2  0  0  0  0
  8 18  1  0  0  0  0
  9 19  1  0  0  0  0
  9  8  1  0  0  0  0
 10 11  1  0  0  0  0
 10  2  1  0  0  0  0
 11 12  1  0  0  0  0
 11 20  1  0  0  0  0
 12 23  1  0  0  0  0
 12 22  1  0  0  0  0
 13  1  1  0  0  0  0
 15  5  1  0  0  0  0
 16  6  1  0  0  0  0
 21 11  1  0  0  0  0
 24 12  1  0  0  0  0
M  END
$$$$
