24
rmsd8.gzmat
N          0.00000        0.00000        0.00000
C          1.38340        0.00000        0.00000
N          1.99890        0.00000        1.13180
C          3.36610       -0.22650        1.33200
C          3.96770       -1.44580        0.98140
C          5.31110       -1.65400        1.27470
C          6.05620       -0.66260        1.91120
C          5.45110        0.54080        2.27370
C          4.10880        0.76690        1.99160
S          2.08410       -0.08860       -1.68510
C          3.42920        1.16000       -1.61630
C          2.91130        2.57260       -1.42680
H         -0.50330        0.39290       -0.77080
H         -0.46930        0.03890        0.89100
H          3.38180       -2.22260        0.49520
H          5.78190       -2.59830        1.00390
H          7.10750       -0.83030        2.13100
H          6.03210        1.30900        2.78200
H          3.62440        1.69660        2.28140
H          3.97670        1.06010       -2.57560
H          4.15170        0.89490       -0.81750
H          2.21220        2.87580       -2.21770
H          3.73900        3.29710       -1.44200
H          2.40000        2.70590       -0.46350
