rmsd27.gzmat
 OpenBabel08211713423D

 24 24  0  0  0  0  0  0  0  0999 V2000
    0.0000    0.0000    0.0000 N   0  0  0  0  0  0  0  0  0  0  0  0
    1.3836    0.0000    0.0000 C   0  0  0  0  0  0  0  0  0  0  0  0
    1.9985    0.0000    1.1321 N   0  0  0  0  0  0  0  0  0  0  0  0
    3.3664    0.2180    1.3354 C   0  0  0  0  0  0  0  0  0  0  0  0
    3.9876    1.4197    0.9603 C   0  0  0  0  0  0  0  0  0  0  0  0
    5.3326    1.6152    1.2560 C   0  0  0  0  0  0  0  0  0  0  0  0
    6.0585    0.6310    1.9248 C   0  0  0  0  0  0  0  0  0  0  0  0
    5.4335   -0.5542    2.3125 C   0  0  0  0  0  0  0  0  0  0  0  0
    4.0912   -0.7696    2.0235 C   0  0  0  0  0  0  0  0  0  0  0  0
    2.0807    0.0999   -1.6858 S   0  0  0  0  0  0  0  0  0  0  0  0
    3.4623   -1.1081   -1.6306 C   0  0  0  0  0  0  0  0  0  0  0  0
    2.9791   -2.5451   -1.5897 C   0  0  0  0  0  0  0  0  0  0  0  0
   -0.5042   -0.3933   -0.7700 H   0  0  0  0  0  0  0  0  0  0  0  0
   -0.4701   -0.0352    0.8909 H   0  0  0  0  0  0  0  0  0  0  0  0
    3.4152    2.1934    0.4539 H   0  0  0  0  0  0  0  0  0  0  0  0
    5.8199    2.5443    0.9618 H   0  0  0  0  0  0  0  0  0  0  0  0
    7.1096    0.7899    2.1513 H   0  0  0  0  0  0  0  0  0  0  0  0
    5.9979   -1.3166    2.8479 H   0  0  0  0  0  0  0  0  0  0  0  0
    3.5918   -1.6858    2.3313 H   0  0  0  0  0  0  0  0  0  0  0  0
    4.1309   -0.8907   -0.7726 H   0  0  0  0  0  0  0  0  0  0  0  0
    4.0649   -0.9130   -2.5414 H   0  0  0  0  0  0  0  0  0  0  0  0
    2.4049   -2.7702   -0.6810 H   0  0  0  0  0  0  0  0  0  0  0  0
    3.8297   -3.2426   -1.6010 H   0  0  0  0  0  0  0  0  0  0  0  0
    2.3474   -2.8018   -2.4510 H   0  0  0  0  0  0  0  0  0  0  0  0
  1  2  1  0  0  0  0
  1 14  1  0  0  0  0
  2  3  2  0  0  0  0
  3  4  1  0  0  0  0
  4  9  2  0  0  0  0
  5  6  2  0  0  0  0
  5  4  1  0  0  0  0
  6  7  1  0  0  0  0
  7 17  1  0  0  0  0
  7  8  2  0  0  0  0
  8 18  1  0  0  0  0
  9  8  1  0  0  0  0
  9 19  1  0  0  0  0
 10 11  1  0  0  0  0
 10  2  1  0  0  0  0
 11 12  1  0  0  0  0
 11 20  1  0  0  0  0
 12 22  1  0  0  0  0
 13  1  1  0  0  0  0
 15  5  1  0  0  0  0
 16  6  1  0  0  0  0
 21 11  1  0  0  0  0
 23 12  1  0  0  0  0
 24 12  1  0  0  0  0
M  END
$$$$
