24
rmsd37.gzmat
N          0.00000        0.00000        0.00000
C          1.38570        0.00000        0.00000
N          1.99580        0.00000        1.13400
C          3.35760        0.22600        1.36020
C          3.97330        1.43810        1.00980
C          5.30680        1.64860        1.34460
C          6.02770        0.66790        2.02360
C          5.41000       -0.53080        2.38000
C          4.07840       -0.76040        2.05480
S          2.06410        0.08510       -1.69140
C          3.57910       -0.94830       -1.60580
C          3.31490       -2.36670       -1.14130
H         -0.50040       -0.42230       -0.75740
H         -0.46570       -0.03250        0.89370
H          3.40460        2.20960        0.49590
H          5.78800        2.58790        1.07480
H          7.06920        0.83920        2.28240
H          5.97270       -1.29180        2.91890
H          3.58490       -1.68630        2.34050
H          4.33300       -0.45640       -0.95840
H          3.99470       -0.93800       -2.63430
H          2.96930       -2.40650       -0.09820
H          4.23450       -2.96860       -1.18480
H          2.56850       -2.88390       -1.75750
