24
rmsd42.gzmat
N          0.00000        0.00000        0.00000
C          1.38590        0.00000        0.00000
N          1.99470        0.00000        1.13490
C          3.35580       -0.22990        1.36070
C          4.08410        0.76070        2.04100
C          5.42000        0.53410        2.35050
C          6.03380       -0.66670        1.99420
C          5.30270       -1.65500        1.33740
C          3.96520       -1.44750        1.01820
S          2.06190       -0.08930       -1.69200
C          3.62440        0.86950       -1.60270
C          3.41830        2.31550       -1.19720
H         -0.50240        0.41970       -0.75750
H         -0.46560        0.03110        0.89390
H          3.59310        1.68800        2.32680
H          5.98850        1.30060        2.87530
H          7.08000       -0.83440        2.23590
H          5.77970       -2.59810        1.07280
H          3.38880       -2.22350        0.51990
H          4.06520        0.79970       -2.61870
H          4.33930        0.36690       -0.91910
H          2.71460        2.84410       -1.85370
H          4.36750        2.86990       -1.23660
H          3.04840        2.41090       -0.16640
