rmsd37.gzmat
 OpenBabel08211713423D

 24 24  0  0  0  0  0  0  0  0999 V2000
    0.0000    0.0000    0.0000 N   0  0  0  0  0  0  0  0  0  0  0  0
    1.3857    0.0000    0.0000 C   0  0  0  0  0  0  0  0  0  0  0  0
    1.9958    0.0000    1.1340 N   0  0  0  0  0  0  0  0  0  0  0  0
    3.3576    0.2260    1.3602 C   0  0  0  0  0  0  0  0  0  0  0  0
    3.9733    1.4381    1.0098 C   0  0  0  0  0  0  0  0  0  0  0  0
    5.3068    1.6486    1.3446 C   0  0  0  0  0  0  0  0  0  0  0  0
    6.0277    0.6679    2.0236 C   0  0  0  0  0  0  0  0  0  0  0  0
    5.4100   -0.5308    2.3800 C   0  0  0  0  0  0  0  0  0  0  0  0
    4.0784   -0.7604    2.0548 C   0  0  0  0  0  0  0  0  0  0  0  0
    2.0641    0.0851   -1.6914 S   0  0  0  0  0  0  0  0  0  0  0  0
    3.5791   -0.9483   -1.6058 C   0  0  0  0  0  0  0  0  0  0  0  0
    3.3149   -2.3667   -1.1413 C   0  0  0  0  0  0  0  0  0  0  0  0
   -0.5004   -0.4223   -0.7574 H   0  0  0  0  0  0  0  0  0  0  0  0
   -0.4657   -0.0325    0.8937 H   0  0  0  0  0  0  0  0  0  0  0  0
    3.4046    2.2096    0.4959 H   0  0  0  0  0  0  0  0  0  0  0  0
    5.7880    2.5879    1.0748 H   0  0  0  0  0  0  0  0  0  0  0  0
    7.0692    0.8392    2.2824 H   0  0  0  0  0  0  0  0  0  0  0  0
    5.9727   -1.2918    2.9189 H   0  0  0  0  0  0  0  0  0  0  0  0
    3.5849   -1.6863    2.3405 H   0  0  0  0  0  0  0  0  0  0  0  0
    4.3330   -0.4564   -0.9584 H   0  0  0  0  0  0  0  0  0  0  0  0
    3.9947   -0.9380   -2.6343 H   0  0  0  0  0  0  0  0  0  0  0  0
    2.9693   -2.4065   -0.0982 H   0  0  0  0  0  0  0  0  0  0  0  0
    4.2345   -2.9686   -1.1848 H   0  0  0  0  0  0  0  0  0  0  0  0
    2.5685   -2.8839   -1.7575 H   0  0  0  0  0  0  0  0  0  0  0  0
  1  2  1  0  0  0  0
  1 14  1  0  0  0  0
  2  3  2  0  0  0  0
  3  4  1  0  0  0  0
  4  9  2  0  0  0  0
  5  6  2  0  0  0  0
  5  4  1  0  0  0  0
  6  7  1  0  0  0  0
  7 17  1  0  0  0  0
  7  8  2  0  0  0  0
  8 18  1  0  0  0  0
  9 19  1  0  0  0  0
  9  8  1  0  0  0  0
 10 11  1  0  0  0  0
 10  2  1  0  0  0  0
 11 12  1  0  0  0  0
 11 20  1  0  0  0  0
 12 22  1  0  0  0  0
 13  1  1  0  0  0  0
 15  5  1  0  0  0  0
 16  6  1  0  0  0  0
 21 11  1  0  0  0  0
 23 12  1  0  0  0  0
 24 12  1  0  0  0  0
M  END
$$$$
