24
rmsd35.gzmat
N          0.00000        0.00000        0.00000
C          1.38590        0.00000        0.00000
N          1.99050        0.00000        1.13720
C          3.34780       -0.22650        1.38200
C          4.03260        0.72500        2.15720
C          5.36040        0.49990        2.49910
C          6.01070       -0.66110        2.08120
C          5.32400       -1.61090        1.32780
C          3.99450       -1.40360        0.97430
S          2.05390       -0.08610       -1.69460
C          3.62590        0.85670       -1.61150
C          3.44840        2.28820       -1.14730
H         -0.50140        0.42350       -0.75580
H         -0.46500        0.02920        0.89430
H          3.51300        1.62030        2.49130
H          5.89370        1.23370        3.10120
H          7.05030       -0.82780        2.35040
H          5.82900       -2.52460        1.01630
H          3.45350       -2.15330        0.40240
H          4.03910        0.82100       -2.64070
H          4.35200        0.32180       -0.96540
H          2.73790        2.85060       -1.76660
H          4.40450        2.83110       -1.18690
H          3.10180        2.35010       -0.10560
