42
rmsd245.gzmat
Br         0.00000        0.00000        0.00000
C          1.92230        0.00000        0.00000
C          2.64340        0.00000        1.32310
C          2.72370       -1.22800        0.44410
C          4.02510       -1.51590       -0.27950
C          3.77530       -2.40900       -1.50170
C          3.05630       -3.70120       -1.09510
C          1.74940       -3.38500       -0.35630
C          2.02120       -2.49790        0.86700
C          2.45020        0.85390       -1.11240
O          3.28650        1.71580       -0.92790
N          1.97850        0.56520       -2.37310
C          2.38510        1.39830       -3.51730
H          3.31270        1.97250       -3.22140
C          1.26650        2.36200       -3.85720
C          0.03100        1.90020       -4.31330
C         -0.98900        2.80480       -4.59950
C         -0.77890        4.17240       -4.42960
C          0.45310        4.63400       -3.96960
C          1.47430        3.73080       -3.68170
C          2.72310        0.49260       -4.71050
H          3.51290        0.65370        1.43710
H          2.08670       -0.02600        2.25690
H          4.53140       -0.57890       -0.59100
H          4.72880       -2.01190        0.41870
H          3.17320       -1.85980       -2.25080
H          4.73440       -2.64580       -1.99760
H          3.71530       -4.31340       -0.45160
H          2.84640       -4.31520       -1.98970
H          1.25370       -4.32090       -0.04050
H          1.04070       -2.88170       -1.03990
H          1.07920       -2.29440        1.40950
H          2.66100       -3.04120        1.59320
H          1.25200       -0.11030       -2.53970
H         -0.14270        0.83480       -4.44430
H         -1.95210        2.44290       -4.95310
H         -1.57650        4.87770       -4.65170
H          0.61700        5.70070       -3.82900
H          2.43020        4.09630       -3.30640
H          3.02830        1.09530       -5.57440
H          1.87180       -0.12050       -5.02420
H          3.55080       -0.18520       -4.46790
