42
rmsd21.gzmat
Br         0.00000        0.00000        0.00000
C          1.92170        0.00000        0.00000
C          2.64560        0.00000        1.32060
C          2.71990       -1.22960        0.44320
C          4.02250       -1.52380       -0.27570
C          3.77990       -2.42750       -1.49160
C          3.05180       -3.71300       -1.08010
C          1.73960       -3.38210       -0.35790
C          2.01060       -2.49590        0.86600
C          2.44460        0.84950       -1.11840
O          3.24170        1.74900       -0.93970
N          1.98490        0.53320       -2.37540
C          2.49310        1.27770       -3.54240
H          2.53560        2.37000       -3.25830
C          1.55290        1.06220       -4.70720
C          1.31930       -0.22000       -5.20800
C          0.45380       -0.40110       -6.28410
C         -0.17600        0.69750       -6.86700
C          0.05910        1.97790       -6.36930
C          0.91960        2.16100       -5.28850
C          3.91290        0.81220       -3.90510
H          3.51630        0.65200        1.43240
H          2.09210       -0.02350        2.25610
H          4.53040       -0.58970       -0.59180
H          4.72350       -2.01410        0.42980
H          3.18800       -1.88360       -2.25150
H          4.74340       -2.67320       -1.97490
H          3.70100       -4.32030       -0.42200
H          2.84970       -4.33740       -1.96920
H          1.23000       -4.31140       -0.04530
H          1.04320       -2.87280       -1.04980
H          1.06760       -2.28850        1.40480
H          2.64470       -3.04160        1.59500
H          1.35410       -0.23190       -2.54860
H          1.81920       -1.08060       -4.76740
H          0.27110       -1.40090       -6.67240
H         -0.85050        0.55550       -7.70880
H         -0.43260        2.83620       -6.82380
H          1.09270        3.16370       -4.89940
H          4.26160        1.29890       -4.82230
H          3.96630       -0.26970       -4.05800
H          4.61630        1.07080       -3.10010
