42
rmsd246.gzmat
Br         0.00000        0.00000        0.00000
C          1.92170        0.00000        0.00000
C          2.64290        0.00000        1.32220
C          2.72170       -1.22860        0.44410
C          4.02430       -1.51860       -0.27690
C          3.77510       -2.40120       -1.50670
C          3.04220       -3.68980       -1.11390
C          1.73610       -3.36830       -0.37610
C          2.01600       -2.49930        0.85840
C          2.44870        0.84580       -1.11910
O          3.26800        1.72510       -0.94290
N          1.98750        0.52780       -2.37590
C          2.41240        1.31260       -3.54550
H          3.17600        2.07240       -3.20390
C          1.20900        2.01360       -4.14080
C          0.12890        1.28500       -4.64140
C         -0.97010        1.94980       -5.18080
C         -0.99340        3.34300       -5.22180
C          0.08330        4.07070       -4.71860
C          1.18200        3.40800       -4.17520
C          3.06690        0.38360       -4.57980
H          3.51270        0.65330        1.43530
H          2.08650       -0.02500        2.25630
H          4.53780       -0.58280       -0.57840
H          4.72300       -2.02300        0.42030
H          3.18460       -1.84230       -2.25760
H          4.73580       -2.64270       -1.99700
H          3.69300       -4.31320       -0.47280
H          2.83140       -4.29470       -2.01430
H          1.22920       -4.30210       -0.07330
H          1.03470       -2.84940       -1.05550
H          1.07770       -2.30040        1.40830
H          2.65760       -3.05400        1.57410
H          1.29430       -0.18380       -2.53460
H          0.13900        0.19780       -4.61420
H         -1.81150        1.38010       -5.56980
H         -1.85190        3.86150       -5.64330
H          0.06590        5.15870       -4.74590
H          2.01450        3.98210       -3.76970
H          3.38310        0.95320       -5.46190
H          2.38590       -0.40130       -4.92320
H          3.95470       -0.10560       -4.16120
