42
rmsd244.gzmat
Br         0.00000        0.00000        0.00000
C          1.92060        0.00000        0.00000
C          2.65160        0.00000        1.31710
C          2.72240       -1.22890        0.43800
C          4.01490       -1.52070       -0.29990
C          3.75020       -2.42380       -1.51210
C          3.04010       -3.71440       -1.08540
C          1.73700       -3.38820       -0.34460
C          2.02050       -2.49550        0.87190
C          2.44740        0.85260       -1.11430
O          3.25360        1.74250       -0.92760
N          1.99700        0.53860       -2.37500
C          2.46060        1.30870       -3.54080
H          3.02690        2.21260       -3.16720
C          1.25340        1.74230       -4.34480
C          0.45190        0.80090       -4.99250
C         -0.66340        1.21560       -5.71620
C         -0.98060        2.57060       -5.79500
C         -0.18110        3.51080       -5.14790
C          0.93380        3.09850       -4.42090
C          3.41180        0.45150       -4.39100
H          3.52170        0.65450        1.42280
H          2.10370       -0.02510        2.25600
H          4.51630       -0.58600       -0.62460
H          4.72920       -2.00860        0.39300
H          3.13550       -1.88180       -2.25620
H          4.70200       -2.66120       -2.02070
H          3.70360       -4.31560       -0.43620
H          2.82940       -4.34360       -1.96910
H          1.23640       -4.31900       -0.02230
H          1.02870       -2.88440       -1.02840
H          1.08360       -2.28700        1.42110
H          2.66540       -3.03570        1.59560
H          1.33220       -0.19670       -2.54780
H          0.69560       -0.25800       -4.93920
H         -1.28770        0.48060       -6.21970
H         -1.85320        2.89230       -6.35900
H         -0.43050        4.56870       -5.20620
H          1.54750        3.83770       -3.90660
H          3.71790        0.99420       -5.29290
H          2.95210       -0.48830       -4.71130
H          4.31890        0.20060       -3.82710
