rmsd125.gzmat
 OpenBabel08211713413D

 42 44  0  0  1  0  0  0  0  0999 V2000
    0.0000    0.0000    0.0000 Br  0  0  0  0  0  0  0  0  0  0  0  0
    1.9223    0.0000    0.0000 C   0  0  1  0  0  0  0  0  0  0  0  0
    2.6420    0.0000    1.3239 C   0  0  0  0  0  0  0  0  0  0  0  0
    2.7241   -1.2275    0.4449 C   0  0  0  0  0  0  0  0  0  0  0  0
    4.0275   -1.5138   -0.2761 C   0  0  0  0  0  0  0  0  0  0  0  0
    3.7757   -2.3963   -1.5053 C   0  0  0  0  0  0  0  0  0  0  0  0
    3.0581   -3.6915   -1.1051 C   0  0  0  0  0  0  0  0  0  0  0  0
    1.7496   -3.3783   -0.3675 C   0  0  0  0  0  0  0  0  0  0  0  0
    2.0209   -2.4988    0.8617 C   0  0  0  0  0  0  0  0  0  0  0  0
    2.4500    0.8503   -1.1154 C   0  0  0  0  0  0  0  0  0  0  0  0
    3.2887    1.7109   -0.9355 O   0  0  0  0  0  0  0  0  0  0  0  0
    1.9721    0.5605   -2.3729 N   0  0  0  0  0  0  0  0  0  0  0  0
    2.3825    1.3784   -3.5268 C   0  0  2  0  0  0  0  0  0  0  0  0
    3.2771    1.9987   -3.2229 H   0  0  0  0  0  0  0  0  0  0  0  0
    1.2341    2.2877   -3.9139 C   0  0  0  0  0  0  0  0  0  0  0  0
    0.0903    1.7834   -4.5333 C   0  0  0  0  0  0  0  0  0  0  0  0
   -0.9601    2.6383   -4.8602 C   0  0  0  0  0  0  0  0  0  0  0  0
   -0.8732    3.9973   -4.5627 C   0  0  0  0  0  0  0  0  0  0  0  0
    0.2656    4.5006   -3.9365 C   0  0  0  0  0  0  0  0  0  0  0  0
    1.3174    3.6476   -3.6103 C   0  0  0  0  0  0  0  0  0  0  0  0
    2.7951    0.4553   -4.6824 C   0  0  0  0  0  0  0  0  0  0  0  0
    3.5104    0.6550    1.4382 H   0  0  0  0  0  0  0  0  0  0  0  0
    2.0845   -0.0268    2.2573 H   0  0  0  0  0  0  0  0  0  0  0  0
    4.5386   -0.5763   -0.5776 H   0  0  0  0  0  0  0  0  0  0  0  0
    4.7273   -2.0180    0.4203 H   0  0  0  0  0  0  0  0  0  0  0  0
    3.1711   -1.8411   -2.2479 H   0  0  0  0  0  0  0  0  0  0  0  0
    4.7329   -2.6280   -2.0064 H   0  0  0  0  0  0  0  0  0  0  0  0
    3.7168   -4.3046   -0.4621 H   0  0  0  0  0  0  0  0  0  0  0  0
    2.8516   -4.3033   -2.0019 H   0  0  0  0  0  0  0  0  0  0  0  0
    1.2513   -4.3147   -0.0579 H   0  0  0  0  0  0  0  0  0  0  0  0
    1.0432   -2.8696   -1.0497 H   0  0  0  0  0  0  0  0  0  0  0  0
    1.0795   -2.2977    1.4054 H   0  0  0  0  0  0  0  0  0  0  0  0
    2.6601   -3.0466    1.5848 H   0  0  0  0  0  0  0  0  0  0  0  0
    1.2482   -0.1192   -2.5356 H   0  0  0  0  0  0  0  0  0  0  0  0
    0.0109    0.7230   -4.7618 H   0  0  0  0  0  0  0  0  0  0  0  0
   -1.8504    2.2439   -5.3456 H   0  0  0  0  0  0  0  0  0  0  0  0
   -1.6950    4.6633   -4.8152 H   0  0  0  0  0  0  0  0  0  0  0  0
    0.3322    5.5604   -3.6975 H   0  0  0  0  0  0  0  0  0  0  0  0
    2.1995    4.0428   -3.1056 H   0  0  0  0  0  0  0  0  0  0  0  0
    3.0419    1.0432   -5.5750 H   0  0  0  0  0  0  0  0  0  0  0  0
    2.0031   -0.2474   -4.9609 H   0  0  0  0  0  0  0  0  0  0  0  0
    3.6809   -0.1344   -4.4147 H   0  0  0  0  0  0  0  0  0  0  0  0
  2  1  1  1  0  0  0
  2  4  1  0  0  0  0
  2  3  1  0  0  0  0
  3 22  1  0  0  0  0
  3 23  1  0  0  0  0
  4  9  1  0  0  0  0
  4  3  1  0  0  0  0
  5 25  1  0  0  0  0
  5  4  1  0  0  0  0
  6  7  1  0  0  0  0
  6  5  1  0  0  0  0
  7 28  1  0  0  0  0
  7  8  1  0  0  0  0
  8 30  1  0  0  0  0
  8  9  1  0  0  0  0
  9 32  1  0  0  0  0
  9 33  1  0  0  0  0
 10 11  2  0  0  0  0
 10  2  1  0  0  0  0
 12 10  1  0  0  0  0
 13 14  1  1  0  0  0
 13 12  1  0  0  0  0
 15 20  1  0  0  0  0
 15 13  1  0  0  0  0
 16 15  2  0  0  0  0
 17 18  2  0  0  0  0
 17 16  1  0  0  0  0
 18 19  1  0  0  0  0
 19 38  1  0  0  0  0
 19 20  2  0  0  0  0
 20 39  1  0  0  0  0
 21 42  1  0  0  0  0
 21 13  1  0  0  0  0
 24  5  1  0  0  0  0
 26  6  1  0  0  0  0
 27  6  1  0  0  0  0
 29  7  1  0  0  0  0
 31  8  1  0  0  0  0
 34 12  1  0  0  0  0
 35 16  1  0  0  0  0
 36 17  1  0  0  0  0
 37 18  1  0  0  0  0
 40 21  1  0  0  0  0
 41 21  1  0  0  0  0
M  END
$$$$
