rmsd21.gzmat
 OpenBabel08211713413D

 42 44  0  0  1  0  0  0  0  0999 V2000
    0.0000    0.0000    0.0000 Br  0  0  0  0  0  0  0  0  0  0  0  0
    1.9217    0.0000    0.0000 C   0  0  1  0  0  0  0  0  0  0  0  0
    2.6456    0.0000    1.3206 C   0  0  0  0  0  0  0  0  0  0  0  0
    2.7199   -1.2296    0.4432 C   0  0  0  0  0  0  0  0  0  0  0  0
    4.0225   -1.5238   -0.2757 C   0  0  0  0  0  0  0  0  0  0  0  0
    3.7799   -2.4275   -1.4916 C   0  0  0  0  0  0  0  0  0  0  0  0
    3.0518   -3.7130   -1.0801 C   0  0  0  0  0  0  0  0  0  0  0  0
    1.7396   -3.3821   -0.3579 C   0  0  0  0  0  0  0  0  0  0  0  0
    2.0106   -2.4959    0.8660 C   0  0  0  0  0  0  0  0  0  0  0  0
    2.4446    0.8495   -1.1184 C   0  0  0  0  0  0  0  0  0  0  0  0
    3.2417    1.7490   -0.9397 O   0  0  0  0  0  0  0  0  0  0  0  0
    1.9849    0.5332   -2.3754 N   0  0  0  0  0  0  0  0  0  0  0  0
    2.4931    1.2777   -3.5424 C   0  0  2  0  0  0  0  0  0  0  0  0
    2.5356    2.3700   -3.2583 H   0  0  0  0  0  0  0  0  0  0  0  0
    1.5529    1.0622   -4.7072 C   0  0  0  0  0  0  0  0  0  0  0  0
    1.3193   -0.2200   -5.2080 C   0  0  0  0  0  0  0  0  0  0  0  0
    0.4538   -0.4011   -6.2841 C   0  0  0  0  0  0  0  0  0  0  0  0
   -0.1760    0.6975   -6.8670 C   0  0  0  0  0  0  0  0  0  0  0  0
    0.0591    1.9779   -6.3693 C   0  0  0  0  0  0  0  0  0  0  0  0
    0.9196    2.1610   -5.2885 C   0  0  0  0  0  0  0  0  0  0  0  0
    3.9129    0.8122   -3.9051 C   0  0  0  0  0  0  0  0  0  0  0  0
    3.5163    0.6520    1.4324 H   0  0  0  0  0  0  0  0  0  0  0  0
    2.0921   -0.0235    2.2561 H   0  0  0  0  0  0  0  0  0  0  0  0
    4.5304   -0.5897   -0.5918 H   0  0  0  0  0  0  0  0  0  0  0  0
    4.7235   -2.0141    0.4298 H   0  0  0  0  0  0  0  0  0  0  0  0
    3.1880   -1.8836   -2.2515 H   0  0  0  0  0  0  0  0  0  0  0  0
    4.7434   -2.6732   -1.9749 H   0  0  0  0  0  0  0  0  0  0  0  0
    3.7010   -4.3203   -0.4220 H   0  0  0  0  0  0  0  0  0  0  0  0
    2.8497   -4.3374   -1.9692 H   0  0  0  0  0  0  0  0  0  0  0  0
    1.2300   -4.3114   -0.0453 H   0  0  0  0  0  0  0  0  0  0  0  0
    1.0432   -2.8728   -1.0498 H   0  0  0  0  0  0  0  0  0  0  0  0
    1.0676   -2.2885    1.4048 H   0  0  0  0  0  0  0  0  0  0  0  0
    2.6447   -3.0416    1.5950 H   0  0  0  0  0  0  0  0  0  0  0  0
    1.3541   -0.2319   -2.5486 H   0  0  0  0  0  0  0  0  0  0  0  0
    1.8192   -1.0806   -4.7674 H   0  0  0  0  0  0  0  0  0  0  0  0
    0.2711   -1.4009   -6.6724 H   0  0  0  0  0  0  0  0  0  0  0  0
   -0.8505    0.5555   -7.7088 H   0  0  0  0  0  0  0  0  0  0  0  0
   -0.4326    2.8362   -6.8238 H   0  0  0  0  0  0  0  0  0  0  0  0
    1.0927    3.1637   -4.8994 H   0  0  0  0  0  0  0  0  0  0  0  0
    4.2616    1.2989   -4.8223 H   0  0  0  0  0  0  0  0  0  0  0  0
    3.9663   -0.2697   -4.0580 H   0  0  0  0  0  0  0  0  0  0  0  0
    4.6163    1.0708   -3.1001 H   0  0  0  0  0  0  0  0  0  0  0  0
  2  1  1  1  0  0  0
  2  4  1  0  0  0  0
  2  3  1  0  0  0  0
  3 22  1  0  0  0  0
  3 23  1  0  0  0  0
  4  9  1  0  0  0  0
  4  3  1  0  0  0  0
  5 25  1  0  0  0  0
  5  4  1  0  0  0  0
  6  7  1  0  0  0  0
  6  5  1  0  0  0  0
  7 28  1  0  0  0  0
  7  8  1  0  0  0  0
  8 30  1  0  0  0  0
  8  9  1  0  0  0  0
  9 32  1  0  0  0  0
  9 33  1  0  0  0  0
 10 11  2  0  0  0  0
 10  2  1  0  0  0  0
 12 10  1  0  0  0  0
 13 14  1  1  0  0  0
 13 12  1  0  0  0  0
 15 13  1  0  0  0  0
 16 35  1  0  0  0  0
 16 15  1  0  0  0  0
 17 16  2  0  0  0  0
 18 19  2  0  0  0  0
 18 17  1  0  0  0  0
 19 20  1  0  0  0  0
 20 39  1  0  0  0  0
 20 15  2  0  0  0  0
 21 13  1  0  0  0  0
 21 42  1  0  0  0  0
 24  5  1  0  0  0  0
 26  6  1  0  0  0  0
 27  6  1  0  0  0  0
 29  7  1  0  0  0  0
 31  8  1  0  0  0  0
 34 12  1  0  0  0  0
 36 17  1  0  0  0  0
 37 18  1  0  0  0  0
 38 19  1  0  0  0  0
 40 21  1  0  0  0  0
 41 21  1  0  0  0  0
M  END
$$$$
