42
rmsd125.gzmat
Br         0.00000        0.00000        0.00000
C          1.92230        0.00000        0.00000
C          2.64200        0.00000        1.32390
C          2.72410       -1.22750        0.44490
C          4.02750       -1.51380       -0.27610
C          3.77570       -2.39630       -1.50530
C          3.05810       -3.69150       -1.10510
C          1.74960       -3.37830       -0.36750
C          2.02090       -2.49880        0.86170
C          2.45000        0.85030       -1.11540
O          3.28870        1.71090       -0.93550
N          1.97210        0.56050       -2.37290
C          2.38250        1.37840       -3.52680
H          3.27710        1.99870       -3.22290
C          1.23410        2.28770       -3.91390
C          0.09030        1.78340       -4.53330
C         -0.96010        2.63830       -4.86020
C         -0.87320        3.99730       -4.56270
C          0.26560        4.50060       -3.93650
C          1.31740        3.64760       -3.61030
C          2.79510        0.45530       -4.68240
H          3.51040        0.65500        1.43820
H          2.08450       -0.02680        2.25730
H          4.53860       -0.57630       -0.57760
H          4.72730       -2.01800        0.42030
H          3.17110       -1.84110       -2.24790
H          4.73290       -2.62800       -2.00640
H          3.71680       -4.30460       -0.46210
H          2.85160       -4.30330       -2.00190
H          1.25130       -4.31470       -0.05790
H          1.04320       -2.86960       -1.04970
H          1.07950       -2.29770        1.40540
H          2.66010       -3.04660        1.58480
H          1.24820       -0.11920       -2.53560
H          0.01090        0.72300       -4.76180
H         -1.85040        2.24390       -5.34560
H         -1.69500        4.66330       -4.81520
H          0.33220        5.56040       -3.69750
H          2.19950        4.04280       -3.10560
H          3.04190        1.04320       -5.57500
H          2.00310       -0.24740       -4.96090
H          3.68090       -0.13440       -4.41470
