rmsd106.gzmat
 OpenBabel08211713413D

 42 44  0  0  1  0  0  0  0  0999 V2000
    0.0000    0.0000    0.0000 Br  0  0  0  0  0  0  0  0  0  0  0  0
    1.9219    0.0000    0.0000 C   0  0  1  0  0  0  0  0  0  0  0  0
    2.6488    0.0000    1.3190 C   0  0  0  0  0  0  0  0  0  0  0  0
    2.7236   -1.2282    0.4390 C   0  0  0  0  0  0  0  0  0  0  0  0
    4.0222   -1.5161   -0.2896 C   0  0  0  0  0  0  0  0  0  0  0  0
    3.7745   -2.4292   -1.4976 C   0  0  0  0  0  0  0  0  0  0  0  0
    3.0715   -3.7209   -1.0630 C   0  0  0  0  0  0  0  0  0  0  0  0
    1.7570   -3.3970   -0.3417 C   0  0  0  0  0  0  0  0  0  0  0  0
    2.0211   -2.4949    0.8719 C   0  0  0  0  0  0  0  0  0  0  0  0
    2.4368    0.8605   -1.1134 C   0  0  0  0  0  0  0  0  0  0  0  0
    3.2201    1.7701   -0.9272 O   0  0  0  0  0  0  0  0  0  0  0  0
    2.0111    0.5224   -2.3785 N   0  0  0  0  0  0  0  0  0  0  0  0
    2.3943    1.3614   -3.5271 C   0  0  2  0  0  0  0  0  0  0  0  0
    3.3248    1.9384   -3.2451 H   0  0  0  0  0  0  0  0  0  0  0  0
    1.2662    2.3269   -3.8279 C   0  0  0  0  0  0  0  0  0  0  0  0
    0.0894    1.9029   -4.4450 C   0  0  0  0  0  0  0  0  0  0  0  0
   -0.9379    2.8127   -4.6866 C   0  0  0  0  0  0  0  0  0  0  0  0
   -0.7943    4.1462   -4.3084 C   0  0  0  0  0  0  0  0  0  0  0  0
    0.3769    4.5681   -3.6815 C   0  0  0  0  0  0  0  0  0  0  0  0
    1.4046    3.6601   -3.4388 C   0  0  0  0  0  0  0  0  0  0  0  0
    2.7208    0.4594   -4.7249 C   0  0  0  0  0  0  0  0  0  0  0  0
    3.5187    0.6534    1.4288 H   0  0  0  0  0  0  0  0  0  0  0  0
    2.0972   -0.0265    2.2558 H   0  0  0  0  0  0  0  0  0  0  0  0
    4.5188   -0.5804   -0.6180 H   0  0  0  0  0  0  0  0  0  0  0  0
    4.7345   -1.9952    0.4117 H   0  0  0  0  0  0  0  0  0  0  0  0
    3.1625   -1.8975   -2.2509 H   0  0  0  0  0  0  0  0  0  0  0  0
    4.7325   -2.6635   -1.9962 H   0  0  0  0  0  0  0  0  0  0  0  0
    3.7341   -4.3043   -0.3969 H   0  0  0  0  0  0  0  0  0  0  0  0
    2.8780   -4.3651   -1.9395 H   0  0  0  0  0  0  0  0  0  0  0  0
    1.2568   -4.3278   -0.0195 H   0  0  0  0  0  0  0  0  0  0  0  0
    1.0552   -2.9009   -1.0373 H   0  0  0  0  0  0  0  0  0  0  0  0
    1.0757   -2.2875    1.4067 H   0  0  0  0  0  0  0  0  0  0  0  0
    2.6578   -3.0276    1.6079 H   0  0  0  0  0  0  0  0  0  0  0  0
    1.3177   -0.1873   -2.5446 H   0  0  0  0  0  0  0  0  0  0  0  0
   -0.0341    0.8631   -4.7374 H   0  0  0  0  0  0  0  0  0  0  0  0
   -1.8545    2.4803   -5.1689 H   0  0  0  0  0  0  0  0  0  0  0  0
   -1.5965    4.8559   -4.4976 H   0  0  0  0  0  0  0  0  0  0  0  0
    0.4876    5.6066   -3.3759 H   0  0  0  0  0  0  0  0  0  0  0  0
    2.3115    3.9893   -2.9297 H   0  0  0  0  0  0  0  0  0  0  0  0
    2.9686    1.0653   -5.6050 H   0  0  0  0  0  0  0  0  0  0  0  0
    1.8850   -0.1918   -5.0009 H   0  0  0  0  0  0  0  0  0  0  0  0
    3.5837   -0.1827   -4.5081 H   0  0  0  0  0  0  0  0  0  0  0  0
  2  1  1  1  0  0  0
  2  4  1  0  0  0  0
  2  3  1  0  0  0  0
  3 22  1  0  0  0  0
  3 23  1  0  0  0  0
  4  9  1  0  0  0  0
  4  3  1  0  0  0  0
  5 25  1  0  0  0  0
  5  4  1  0  0  0  0
  6  7  1  0  0  0  0
  6  5  1  0  0  0  0
  7 28  1  0  0  0  0
  7  8  1  0  0  0  0
  8 30  1  0  0  0  0
  8  9  1  0  0  0  0
  9 32  1  0  0  0  0
  9 33  1  0  0  0  0
 10 11  2  0  0  0  0
 10  2  1  0  0  0  0
 12 10  1  0  0  0  0
 13 14  1  1  0  0  0
 13 12  1  0  0  0  0
 15 13  1  0  0  0  0
 15 20  2  0  0  0  0
 16 15  1  0  0  0  0
 17 16  2  0  0  0  0
 17 18  1  0  0  0  0
 18 19  2  0  0  0  0
 19 20  1  0  0  0  0
 19 38  1  0  0  0  0
 20 39  1  0  0  0  0
 21 42  1  0  0  0  0
 21 13  1  0  0  0  0
 24  5  1  0  0  0  0
 26  6  1  0  0  0  0
 27  6  1  0  0  0  0
 29  7  1  0  0  0  0
 31  8  1  0  0  0  0
 34 12  1  0  0  0  0
 35 16  1  0  0  0  0
 36 17  1  0  0  0  0
 37 18  1  0  0  0  0
 40 21  1  0  0  0  0
 41 21  1  0  0  0  0
M  END
$$$$
