42
rmsd106.gzmat
Br         0.00000        0.00000        0.00000
C          1.92190        0.00000        0.00000
C          2.64880        0.00000        1.31900
C          2.72360       -1.22820        0.43900
C          4.02220       -1.51610       -0.28960
C          3.77450       -2.42920       -1.49760
C          3.07150       -3.72090       -1.06300
C          1.75700       -3.39700       -0.34170
C          2.02110       -2.49490        0.87190
C          2.43680        0.86050       -1.11340
O          3.22010        1.77010       -0.92720
N          2.01110        0.52240       -2.37850
C          2.39430        1.36140       -3.52710
H          3.32480        1.93840       -3.24510
C          1.26620        2.32690       -3.82790
C          0.08940        1.90290       -4.44500
C         -0.93790        2.81270       -4.68660
C         -0.79430        4.14620       -4.30840
C          0.37690        4.56810       -3.68150
C          1.40460        3.66010       -3.43880
C          2.72080        0.45940       -4.72490
H          3.51870        0.65340        1.42880
H          2.09720       -0.02650        2.25580
H          4.51880       -0.58040       -0.61800
H          4.73450       -1.99520        0.41170
H          3.16250       -1.89750       -2.25090
H          4.73250       -2.66350       -1.99620
H          3.73410       -4.30430       -0.39690
H          2.87800       -4.36510       -1.93950
H          1.25680       -4.32780       -0.01950
H          1.05520       -2.90090       -1.03730
H          1.07570       -2.28750        1.40670
H          2.65780       -3.02760        1.60790
H          1.31770       -0.18730       -2.54460
H         -0.03410        0.86310       -4.73740
H         -1.85450        2.48030       -5.16890
H         -1.59650        4.85590       -4.49760
H          0.48760        5.60660       -3.37590
H          2.31150        3.98930       -2.92970
H          2.96860        1.06530       -5.60500
H          1.88500       -0.19180       -5.00090
H          3.58370       -0.18270       -4.50810
