rmsd244.gzmat
 OpenBabel08211713413D

 42 44  0  0  1  0  0  0  0  0999 V2000
    0.0000    0.0000    0.0000 Br  0  0  0  0  0  0  0  0  0  0  0  0
    1.9206    0.0000    0.0000 C   0  0  1  0  0  0  0  0  0  0  0  0
    2.6516    0.0000    1.3171 C   0  0  0  0  0  0  0  0  0  0  0  0
    2.7224   -1.2289    0.4380 C   0  0  0  0  0  0  0  0  0  0  0  0
    4.0149   -1.5207   -0.2999 C   0  0  0  0  0  0  0  0  0  0  0  0
    3.7502   -2.4238   -1.5121 C   0  0  0  0  0  0  0  0  0  0  0  0
    3.0401   -3.7144   -1.0854 C   0  0  0  0  0  0  0  0  0  0  0  0
    1.7370   -3.3882   -0.3446 C   0  0  0  0  0  0  0  0  0  0  0  0
    2.0205   -2.4955    0.8719 C   0  0  0  0  0  0  0  0  0  0  0  0
    2.4474    0.8526   -1.1143 C   0  0  0  0  0  0  0  0  0  0  0  0
    3.2536    1.7425   -0.9276 O   0  0  0  0  0  0  0  0  0  0  0  0
    1.9970    0.5386   -2.3750 N   0  0  0  0  0  0  0  0  0  0  0  0
    2.4606    1.3087   -3.5408 C   0  0  2  0  0  0  0  0  0  0  0  0
    3.0269    2.2126   -3.1672 H   0  0  0  0  0  0  0  0  0  0  0  0
    1.2534    1.7423   -4.3448 C   0  0  0  0  0  0  0  0  0  0  0  0
    0.4519    0.8009   -4.9925 C   0  0  0  0  0  0  0  0  0  0  0  0
   -0.6634    1.2156   -5.7162 C   0  0  0  0  0  0  0  0  0  0  0  0
   -0.9806    2.5706   -5.7950 C   0  0  0  0  0  0  0  0  0  0  0  0
   -0.1811    3.5108   -5.1479 C   0  0  0  0  0  0  0  0  0  0  0  0
    0.9338    3.0985   -4.4209 C   0  0  0  0  0  0  0  0  0  0  0  0
    3.4118    0.4515   -4.3910 C   0  0  0  0  0  0  0  0  0  0  0  0
    3.5217    0.6545    1.4228 H   0  0  0  0  0  0  0  0  0  0  0  0
    2.1037   -0.0251    2.2560 H   0  0  0  0  0  0  0  0  0  0  0  0
    4.5163   -0.5860   -0.6246 H   0  0  0  0  0  0  0  0  0  0  0  0
    4.7292   -2.0086    0.3930 H   0  0  0  0  0  0  0  0  0  0  0  0
    3.1355   -1.8818   -2.2562 H   0  0  0  0  0  0  0  0  0  0  0  0
    4.7020   -2.6612   -2.0207 H   0  0  0  0  0  0  0  0  0  0  0  0
    3.7036   -4.3156   -0.4362 H   0  0  0  0  0  0  0  0  0  0  0  0
    2.8294   -4.3436   -1.9691 H   0  0  0  0  0  0  0  0  0  0  0  0
    1.2364   -4.3190   -0.0223 H   0  0  0  0  0  0  0  0  0  0  0  0
    1.0287   -2.8844   -1.0284 H   0  0  0  0  0  0  0  0  0  0  0  0
    1.0836   -2.2870    1.4211 H   0  0  0  0  0  0  0  0  0  0  0  0
    2.6654   -3.0357    1.5956 H   0  0  0  0  0  0  0  0  0  0  0  0
    1.3322   -0.1967   -2.5478 H   0  0  0  0  0  0  0  0  0  0  0  0
    0.6956   -0.2580   -4.9392 H   0  0  0  0  0  0  0  0  0  0  0  0
   -1.2877    0.4806   -6.2197 H   0  0  0  0  0  0  0  0  0  0  0  0
   -1.8532    2.8923   -6.3590 H   0  0  0  0  0  0  0  0  0  0  0  0
   -0.4305    4.5687   -5.2062 H   0  0  0  0  0  0  0  0  0  0  0  0
    1.5475    3.8377   -3.9066 H   0  0  0  0  0  0  0  0  0  0  0  0
    3.7179    0.9942   -5.2929 H   0  0  0  0  0  0  0  0  0  0  0  0
    2.9521   -0.4883   -4.7113 H   0  0  0  0  0  0  0  0  0  0  0  0
    4.3189    0.2006   -3.8271 H   0  0  0  0  0  0  0  0  0  0  0  0
  2  1  1  1  0  0  0
  2  4  1  0  0  0  0
  2  3  1  0  0  0  0
  3 22  1  0  0  0  0
  3 23  1  0  0  0  0
  4  9  1  0  0  0  0
  4  3  1  0  0  0  0
  5 25  1  0  0  0  0
  5  4  1  0  0  0  0
  6  7  1  0  0  0  0
  6  5  1  0  0  0  0
  7 28  1  0  0  0  0
  7  8  1  0  0  0  0
  8 30  1  0  0  0  0
  8  9  1  0  0  0  0
  9 32  1  0  0  0  0
  9 33  1  0  0  0  0
 10 11  2  0  0  0  0
 10  2  1  0  0  0  0
 12 10  1  0  0  0  0
 13 14  1  1  0  0  0
 13 12  1  0  0  0  0
 15 13  1  0  0  0  0
 16 35  1  0  0  0  0
 16 15  2  0  0  0  0
 17 16  1  0  0  0  0
 18 17  2  0  0  0  0
 18 19  1  0  0  0  0
 19 20  2  0  0  0  0
 20 15  1  0  0  0  0
 20 39  1  0  0  0  0
 21 42  1  0  0  0  0
 21 13  1  0  0  0  0
 24  5  1  0  0  0  0
 26  6  1  0  0  0  0
 27  6  1  0  0  0  0
 29  7  1  0  0  0  0
 31  8  1  0  0  0  0
 34 12  1  0  0  0  0
 36 17  1  0  0  0  0
 37 18  1  0  0  0  0
 38 19  1  0  0  0  0
 40 21  1  0  0  0  0
 41 21  1  0  0  0  0
M  END
$$$$
