42
rmsd168.gzmat
Br         0.00000        0.00000        0.00000
C          1.92200        0.00000        0.00000
C          2.64510        0.00000        1.32180
C          2.72190       -1.22880        0.44400
C          4.02000       -1.52080       -0.28370
C          3.76050       -2.40900       -1.50770
C          3.04170       -3.70070       -1.09880
C          1.73870       -3.38160       -0.35490
C          2.01700       -2.49680        0.86860
C          2.44880        0.85630       -1.11150
O          3.27580        1.72640       -0.92390
N          1.98050        0.56490       -2.37220
C          2.38580        1.39010       -3.52210
H          3.21030        2.08650       -3.18620
C          1.19260        2.19070       -4.00180
C          0.07810        1.55910       -4.55570
C         -1.01180        2.31480       -4.98160
C         -0.99100        3.70300       -4.85600
C          0.11720        4.33380       -4.29360
C          1.20660        3.57890       -3.86390
C          2.92970        0.48410       -4.63700
H          3.51490        0.65410        1.43280
H          2.09070       -0.02430        2.25700
H          4.52980       -0.58520       -0.59290
H          4.72300       -2.02340        0.41060
H          3.15400       -1.85590       -2.25060
H          4.71540       -2.64630       -2.01140
H          3.70220       -4.31390       -0.45800
H          2.82890       -4.31600       -1.99190
H          1.24030       -4.31590       -0.03910
H          1.02930       -2.87400       -1.03470
H          1.07680       -2.29150        1.41350
H          2.65700       -3.04200        1.59300
H          1.27050       -0.12760       -2.54070
H          0.05440        0.47660       -4.65770
H         -1.88140        1.82050       -5.41030
H         -1.84100        4.29260       -5.19230
H          0.13170        5.41690       -4.18570
H          2.06480        4.07610       -3.41130
H          3.20870        1.08040       -5.51430
H          2.19570       -0.25940       -4.96500
H          3.82380       -0.05640       -4.30220
