35
rmsd143.gzmat
N          0.00000        0.00000        0.00000
C          1.38540        0.00000        0.00000
N          2.20340        0.00000        1.09980
C          1.52190        0.00150        2.26800
C          0.08470       -0.00010        2.39950
C         -0.63950       -0.00410        1.18470
O         -1.96630       -0.01570        1.24310
C         -2.67780        0.01950       -0.01640
C         -4.14360       -0.04900        0.42680
C         -5.03320       -0.15350       -0.82260
C         -6.51100       -0.20570       -0.41240
C         -6.88830        1.03360        0.41030
C         -5.99360        1.14700        1.65170
C         -4.51430        1.19390        1.25090
N         -0.25240        0.00390        3.74960
C          0.89030        0.00700        4.42400
N          2.02270        0.00570        3.55780
H          2.98630        0.00540        3.80870
N          1.98750       -0.00170       -1.22520
H         -2.37240       -0.84570       -0.62890
H         -2.42180        0.95300       -0.54340
H         -4.28780       -0.95750        1.06180
H         -4.77100       -1.05310       -1.40830
H         -4.85860        0.71210       -1.48860
H         -7.15140       -0.27500       -1.30970
H         -6.70820       -1.12190        0.17500
H         -6.79090        1.94310       -0.21040
H         -7.95050        0.98250        0.70920
H         -6.25760        2.05100        2.22930
H         -6.17530        0.29050        2.32760
H         -4.30480        2.11320        0.67490
H         -3.87640        1.24800        2.15630
H          1.00090        0.00940        5.49570
H          1.43280       -0.00880       -2.05630
H          2.98510       -0.00590       -1.29520
