35
rmsd126.gzmat
N          0.00000        0.00000        0.00000
C          1.38520        0.00000        0.00000
N          2.20340        0.00000        1.09970
C          1.52190       -0.00370        2.26780
C          0.08470       -0.01210        2.39940
C         -0.63950       -0.00830        1.18480
O         -1.96610       -0.01350        1.24340
C         -2.68240        0.02890       -0.01360
C         -4.13890       -0.12810        0.43810
C         -4.45450       -1.60630        0.71660
C         -5.92430       -1.77640        1.11810
C         -6.85150       -1.21530        0.03240
C         -6.53570        0.26260       -0.23120
C         -5.06910        0.43560       -0.64740
N         -0.25230       -0.01370        3.74920
C          0.89020       -0.00530        4.42360
N          2.02260        0.00140        3.55740
H          2.98610        0.00460        3.80850
N          1.98820        0.00110       -1.22480
H         -2.33370       -0.78620       -0.66930
H         -2.47420        0.99920       -0.49480
H         -4.28530        0.45340        1.38470
H         -3.79280       -1.98120        1.52250
H         -4.23310       -2.22200       -0.17370
H         -6.14980       -2.84420        1.29160
H         -6.11580       -1.26340        2.07900
H         -6.73760       -1.79820       -0.89990
H         -7.90660       -1.33030        0.33810
H         -7.20220        0.65990       -1.01760
H         -6.74500        0.85980        0.67600
H         -4.88900       -0.07740       -1.61000
H         -4.85190        1.50560       -0.82060
H          1.00160       -0.00160        5.49520
H          1.43450        0.00100       -2.05650
H          2.98590        0.00200       -1.29230
