35

N         -0.00130       -0.07130        0.06950
C          1.35110        0.02040        0.02760
N          2.18100        0.09710        1.07600
C          1.53510        0.06220        2.24040
C          0.14190       -0.03830        2.43610
C         -0.61280       -0.10280        1.24360
O         -1.93790       -0.19180        1.31080
C         -2.68670       -0.22610        0.09210
C         -4.16320       -0.27280        0.44750
C         -5.01810       -0.41750       -0.82010
C         -6.51510       -0.45630       -0.49490
C         -6.94560        0.76510        0.32460
C         -6.09640        0.91130        1.59150
C         -4.60120        0.95250        1.26330
N         -0.16910       -0.03960        3.78370
C          0.98380        0.05460        4.38840
N          2.05700        0.12050        3.51000
H          3.03990        0.19550        3.74030
N          1.90900        0.01490       -1.21620
H         -2.38220       -1.10550       -0.49870
H         -2.44580        0.66650       -0.50960
H         -4.32210       -1.17150        1.07260
H         -4.72340       -1.32430       -1.37530
H         -4.81340        0.43940       -1.48920
H         -7.10370       -0.52390       -1.42490
H         -6.73420       -1.37390        0.08100
H         -6.83130        1.67410       -0.29450
H         -8.01560        0.69540        0.58200
H         -6.38830        1.81710        2.14820
H         -6.29560        0.05600        2.26270
H         -4.38050        1.86360        0.67480
H         -3.99870        1.01680        2.18170
H          1.13360        0.08210        5.46830
H          1.29910        0.12570       -2.01340
H          2.89030        0.24000       -1.29940
