rmsd148.gzmat
 OpenBabel08211713423D

 35 37  0  0  0  0  0  0  0  0999 V2000
    0.0000    0.0000    0.0000 N   0  0  0  0  0  0  0  0  0  0  0  0
    1.3854    0.0000    0.0000 C   0  0  0  0  0  0  0  0  0  0  0  0
    2.2032    0.0000    1.1000 N   0  0  0  0  0  0  0  0  0  0  0  0
    1.5219    0.0065    2.2683 C   0  0  0  0  0  0  0  0  0  0  0  0
    0.0846    0.0126    2.3999 C   0  0  0  0  0  0  0  0  0  0  0  0
   -0.6393    0.0068    1.1849 C   0  0  0  0  0  0  0  0  0  0  0  0
   -1.9663    0.0050    1.2433 O   0  0  0  0  0  0  0  0  0  0  0  0
   -2.6781   -0.0260   -0.0162 C   0  0  0  0  0  0  0  0  0  0  0  0
   -4.1445   -0.0409    0.4311 C   0  0  0  0  0  0  0  0  0  0  0  0
   -4.4548   -1.3333    1.2028 C   0  0  0  0  0  0  0  0  0  0  0  0
   -5.9345   -1.3751    1.6026 C   0  0  0  0  0  0  0  0  0  0  0  0
   -6.8367   -1.2486    0.3679 C   0  0  0  0  0  0  0  0  0  0  0  0
   -6.5201    0.0424   -0.3989 C   0  0  0  0  0  0  0  0  0  0  0  0
   -5.0425    0.0777   -0.8109 C   0  0  0  0  0  0  0  0  0  0  0  0
   -0.2523    0.0186    3.7501 N   0  0  0  0  0  0  0  0  0  0  0  0
    0.8902    0.0156    4.4247 C   0  0  0  0  0  0  0  0  0  0  0  0
    2.0223    0.0077    3.5584 N   0  0  0  0  0  0  0  0  0  0  0  0
    2.9858    0.0045    3.8099 H   0  0  0  0  0  0  0  0  0  0  0  0
    1.9875    0.0000   -1.2253 N   0  0  0  0  0  0  0  0  0  0  0  0
   -2.3823   -0.9279   -0.5774 H   0  0  0  0  0  0  0  0  0  0  0  0
   -2.4116    0.8730   -0.5969 H   0  0  0  0  0  0  0  0  0  0  0  0
   -4.3278    0.8315    1.1060 H   0  0  0  0  0  0  0  0  0  0  0  0
   -3.8155   -1.3918    2.1070 H   0  0  0  0  0  0  0  0  0  0  0  0
   -4.1996   -2.2175    0.5917 H   0  0  0  0  0  0  0  0  0  0  0  0
   -6.1548   -2.3157    2.1392 H   0  0  0  0  0  0  0  0  0  0  0  0
   -6.1563   -0.5593    2.3163 H   0  0  0  0  0  0  0  0  0  0  0  0
   -6.6989   -2.1240   -0.2933 H   0  0  0  0  0  0  0  0  0  0  0  0
   -7.8986   -1.2589    0.6717 H   0  0  0  0  0  0  0  0  0  0  0  0
   -7.1647    0.1208   -1.2926 H   0  0  0  0  0  0  0  0  0  0  0  0
   -6.7600    0.9215    0.2283 H   0  0  0  0  0  0  0  0  0  0  0  0
   -4.8308   -0.7486   -1.5147 H   0  0  0  0  0  0  0  0  0  0  0  0
   -4.8255    1.0138   -1.3562 H   0  0  0  0  0  0  0  0  0  0  0  0
    1.0017    0.0181    5.4966 H   0  0  0  0  0  0  0  0  0  0  0  0
    1.4328   -0.0075   -2.0566 H   0  0  0  0  0  0  0  0  0  0  0  0
    2.9850   -0.0060   -1.2944 H   0  0  0  0  0  0  0  0  0  0  0  0
  1  2  2  0  0  0  0
  1  6  2  0  0  0  0
  2  3  2  0  0  0  0
  3  4  2  0  0  0  0
  4  5  1  0  0  0  0
  4 17  1  0  0  0  0
  5 15  2  0  0  0  0
  6  7  1  0  0  0  0
  6  5  1  0  0  0  0
  8  9  1  0  0  0  0
  8  7  1  0  0  0  0
  9 22  1  0  0  0  0
  9 10  1  0  0  0  0
 10 11  1  0  0  0  0
 10 23  1  0  0  0  0
 11 25  1  0  0  0  0
 11 26  1  0  0  0  0
 12 28  1  0  0  0  0
 12 11  1  0  0  0  0
 13 30  1  0  0  0  0
 13 12  1  0  0  0  0
 14 13  1  0  0  0  0
 14  9  1  0  0  0  0
 15 16  2  0  0  0  0
 16 33  1  0  0  0  0
 17 18  1  0  0  0  0
 17 16  1  0  0  0  0
 19  2  1  0  0  0  0
 20  8  1  0  0  0  0
 21  8  1  0  0  0  0
 24 10  1  0  0  0  0
 27 12  1  0  0  0  0
 29 13  1  0  0  0  0
 31 14  1  0  0  0  0
 32 14  1  0  0  0  0
 34 19  1  0  0  0  0
 35 19  1  0  0  0  0
M  END
$$$$
