rmsd126.gzmat
 OpenBabel08211713423D

 35 37  0  0  0  0  0  0  0  0999 V2000
    0.0000    0.0000    0.0000 N   0  0  0  0  0  0  0  0  0  0  0  0
    1.3852    0.0000    0.0000 C   0  0  0  0  0  0  0  0  0  0  0  0
    2.2034    0.0000    1.0997 N   0  0  0  0  0  0  0  0  0  0  0  0
    1.5219   -0.0037    2.2678 C   0  0  0  0  0  0  0  0  0  0  0  0
    0.0847   -0.0121    2.3994 C   0  0  0  0  0  0  0  0  0  0  0  0
   -0.6395   -0.0083    1.1848 C   0  0  0  0  0  0  0  0  0  0  0  0
   -1.9661   -0.0135    1.2434 O   0  0  0  0  0  0  0  0  0  0  0  0
   -2.6824    0.0289   -0.0136 C   0  0  0  0  0  0  0  0  0  0  0  0
   -4.1389   -0.1281    0.4381 C   0  0  0  0  0  0  0  0  0  0  0  0
   -4.4545   -1.6063    0.7166 C   0  0  0  0  0  0  0  0  0  0  0  0
   -5.9243   -1.7764    1.1181 C   0  0  0  0  0  0  0  0  0  0  0  0
   -6.8515   -1.2153    0.0324 C   0  0  0  0  0  0  0  0  0  0  0  0
   -6.5357    0.2626   -0.2312 C   0  0  0  0  0  0  0  0  0  0  0  0
   -5.0691    0.4356   -0.6474 C   0  0  0  0  0  0  0  0  0  0  0  0
   -0.2523   -0.0137    3.7492 N   0  0  0  0  0  0  0  0  0  0  0  0
    0.8902   -0.0053    4.4236 C   0  0  0  0  0  0  0  0  0  0  0  0
    2.0226    0.0014    3.5574 N   0  0  0  0  0  0  0  0  0  0  0  0
    2.9861    0.0046    3.8085 H   0  0  0  0  0  0  0  0  0  0  0  0
    1.9882    0.0011   -1.2248 N   0  0  0  0  0  0  0  0  0  0  0  0
   -2.3337   -0.7862   -0.6693 H   0  0  0  0  0  0  0  0  0  0  0  0
   -2.4742    0.9992   -0.4948 H   0  0  0  0  0  0  0  0  0  0  0  0
   -4.2853    0.4534    1.3847 H   0  0  0  0  0  0  0  0  0  0  0  0
   -3.7928   -1.9812    1.5225 H   0  0  0  0  0  0  0  0  0  0  0  0
   -4.2331   -2.2220   -0.1737 H   0  0  0  0  0  0  0  0  0  0  0  0
   -6.1498   -2.8442    1.2916 H   0  0  0  0  0  0  0  0  0  0  0  0
   -6.1158   -1.2634    2.0790 H   0  0  0  0  0  0  0  0  0  0  0  0
   -6.7376   -1.7982   -0.8999 H   0  0  0  0  0  0  0  0  0  0  0  0
   -7.9066   -1.3303    0.3381 H   0  0  0  0  0  0  0  0  0  0  0  0
   -7.2022    0.6599   -1.0176 H   0  0  0  0  0  0  0  0  0  0  0  0
   -6.7450    0.8598    0.6760 H   0  0  0  0  0  0  0  0  0  0  0  0
   -4.8890   -0.0774   -1.6100 H   0  0  0  0  0  0  0  0  0  0  0  0
   -4.8519    1.5056   -0.8206 H   0  0  0  0  0  0  0  0  0  0  0  0
    1.0016   -0.0016    5.4952 H   0  0  0  0  0  0  0  0  0  0  0  0
    1.4345    0.0010   -2.0565 H   0  0  0  0  0  0  0  0  0  0  0  0
    2.9859    0.0020   -1.2923 H   0  0  0  0  0  0  0  0  0  0  0  0
  1  2  2  0  0  0  0
  1  6  2  0  0  0  0
  2  3  2  0  0  0  0
  3  4  2  0  0  0  0
  4  5  1  0  0  0  0
  4 17  1  0  0  0  0
  5 15  2  0  0  0  0
  6  7  1  0  0  0  0
  6  5  1  0  0  0  0
  8  9  1  0  0  0  0
  8  7  1  0  0  0  0
  9 10  1  0  0  0  0
  9 22  1  0  0  0  0
 10 11  1  0  0  0  0
 10 23  1  0  0  0  0
 11 25  1  0  0  0  0
 11 26  1  0  0  0  0
 12 28  1  0  0  0  0
 12 11  1  0  0  0  0
 13 12  1  0  0  0  0
 13 30  1  0  0  0  0
 14 13  1  0  0  0  0
 14  9  1  0  0  0  0
 15 16  2  0  0  0  0
 16 33  1  0  0  0  0
 17 18  1  0  0  0  0
 17 16  1  0  0  0  0
 19  2  1  0  0  0  0
 20  8  1  0  0  0  0
 21  8  1  0  0  0  0
 24 10  1  0  0  0  0
 27 12  1  0  0  0  0
 29 13  1  0  0  0  0
 31 14  1  0  0  0  0
 32 14  1  0  0  0  0
 34 19  1  0  0  0  0
 35 19  1  0  0  0  0
M  END
$$$$
