35
rmsd70.gzmat
N          0.00000        0.00000        0.00000
C          1.38500        0.00000        0.00000
N          2.20330        0.00000        1.09940
C          1.52160       -0.00560        2.26730
C          0.08430       -0.00750        2.39840
C         -0.64110       -0.00160        1.18320
O         -1.96840        0.02140        1.25200
C         -2.71990       -0.01520        0.02520
C         -2.88410       -1.46760       -0.42960
C         -3.67140       -1.49700       -1.75060
C         -3.87490       -2.94530       -2.21570
C         -4.59720       -3.76320       -1.13670
C         -3.80840       -3.73050        0.17950
C         -3.61050       -2.28460        0.64960
N         -0.25210       -0.01570        3.74860
C          0.89050       -0.01940        4.42320
N          2.02240       -0.01150        3.55700
H          2.98620       -0.01130        3.80700
N          1.98770       -0.00600       -1.22480
H         -2.24960        0.61810       -0.74660
H         -3.66850        0.44170        0.36530
H         -1.87070       -1.90840       -0.60040
H         -3.13350       -0.92280       -2.52690
H         -4.65280       -1.00500       -1.62310
H         -4.45310       -2.96300       -3.15720
H         -2.89740       -3.40880       -2.44720
H         -5.61500       -3.36210       -0.97660
H         -4.73020       -4.80620       -1.47500
H         -4.33840       -4.31310        0.95440
H         -2.82720       -4.22280        0.04410
H         -4.58850       -1.82720        0.88530
H         -3.03020       -2.26220        1.59310
H          1.00180       -0.02960        5.49500
H          1.43410        0.01210       -2.05650
H          2.98520        0.01110       -1.29200
