35
rmsd87.gzmat
N          0.00000        0.00000        0.00000
C          1.38540        0.00000        0.00000
N          2.20370        0.00000        1.09980
C          1.52270        0.00760        2.26830
C          0.08580        0.01860        2.40040
C         -0.63820        0.01320        1.18520
O         -1.96410        0.02170        1.24720
C         -2.68570       -0.05260       -0.00470
C         -4.14600        0.00560        0.45930
C         -4.47040       -1.19830        1.35770
C         -5.93850       -1.14790        1.79670
C         -6.86720       -1.12320        0.57570
C         -6.53500        0.06930       -0.33180
C         -5.06540        0.02530       -0.77260
N         -0.25100        0.02310        3.75040
C          0.89190        0.01440        4.42470
N          2.02370        0.00460        3.55800
H          2.98780       -0.00390        3.80710
N          1.98870        0.00110       -1.22450
H         -2.42130       -0.99420       -0.51320
H         -2.39940        0.80140       -0.64130
H         -4.29960        0.94250        1.05040
H         -3.80700       -1.19370        2.24640
H         -4.26120       -2.14480        0.82820
H         -6.17250       -2.01750        2.43690
H         -6.11420       -0.25370        2.42390
H         -6.77020       -2.06750        0.00900
H         -7.92160       -1.06940        0.90130
H         -7.19610        0.06710       -1.21740
H         -6.74190        1.01610        0.20140
H         -4.88920       -0.87000       -1.39750
H         -4.83600        0.89830       -1.40980
H          1.00260        0.01430        5.49650
H          1.43570        0.00390       -2.05700
H          2.98650       -0.00820       -1.29140
