41
rmsd15.gzmat
O          0.00000        0.00000        0.00000
C          1.43800        0.00000        0.00000
H          1.79250        0.00000        1.05470
C          1.78580        1.30320       -0.72680
C          1.16720        1.30460       -2.12730
C          1.46210        0.02510       -2.86100
C          1.81210       -1.11190       -2.23890
C          1.93470       -1.23500       -0.75870
N          1.23440        0.16710       -4.27090
C          2.40540        0.74830       -4.98310
C          3.18250       -0.41960       -5.63610
C          2.19530       -1.60060       -5.67670
C          0.90350       -1.08080       -5.00350
C         -0.62940       -0.78600        0.90130
O         -0.03780       -1.41870        1.74240
C         -2.09050       -0.72500        0.70630
C         -2.91220       -1.19020        1.73490
C         -4.29550       -1.14330        1.58320
C         -4.85010       -0.63620        0.40850
C         -4.02570       -0.17940       -0.61910
C         -2.64100       -0.22390       -0.47370
H          2.88540        1.40480       -0.78790
H          1.41690        2.17260       -0.15030
H          1.50900        2.18630       -2.70300
H          0.06040        1.41570       -2.05660
H          2.03620       -2.02260       -2.78650
H          1.37330       -2.12900       -0.40390
H          2.99520       -1.43100       -0.48980
H          3.04300        1.34550       -4.30780
H          2.00280        1.43680       -5.75630
H          3.53630       -0.14870       -6.64160
H          4.07780       -0.67400       -5.04660
H          2.00020       -1.93000       -6.70820
H          2.59980       -2.47400       -5.14150
H          0.14690       -0.80150       -5.76930
H          0.43020       -1.83240       -4.34750
H         -2.46450       -1.59000        2.64780
H         -4.94210       -1.50270        2.38110
H         -5.93220       -0.59860        0.29240
H         -4.46260        0.21170       -1.53580
H         -1.98960        0.12900       -1.27740
