rmsd13.gzmat
 OpenBabel08211713403D

 41 43  0  0  1  0  0  0  0  0999 V2000
    0.0000    0.0000    0.0000 O   0  0  0  0  0  0  0  0  0  0  0  0
    1.4389    0.0000    0.0000 C   0  0  2  0  0  0  0  0  0  0  0  0
    1.7852    0.0000    1.0565 H   0  0  0  0  0  0  0  0  0  0  0  0
    1.9421    1.2224   -0.7677 C   0  0  0  0  0  0  0  0  0  0  0  0
    1.3087    1.2677   -2.1598 C   0  0  0  0  0  0  0  0  0  0  0  0
    1.4191   -0.0639   -2.8557 C   0  0  0  0  0  0  0  0  0  0  0  0
    1.6201   -1.2195   -2.2016 C   0  0  0  0  0  0  0  0  0  0  0  0
    1.7843   -1.3094   -0.7219 C   0  0  0  0  0  0  0  0  0  0  0  0
    1.3289    0.0804   -4.2785 N   0  0  0  0  0  0  0  0  0  0  0  0
    1.8434   -1.0475   -5.0937 C   0  0  0  0  0  0  0  0  0  0  0  0
    0.6398   -1.9269   -5.5088 C   0  0  0  0  0  0  0  0  0  0  0  0
   -0.6074   -1.0630   -5.2453 C   0  0  0  0  0  0  0  0  0  0  0  0
   -0.0687    0.2981   -4.7450 C   0  0  0  0  0  0  0  0  0  0  0  0
   -0.6292    0.9012    0.7856 C   0  0  0  0  0  0  0  0  0  0  0  0
   -0.0404    1.6333    1.5442 O   0  0  0  0  0  0  0  0  0  0  0  0
   -2.0882    0.8491    0.5673 C   0  0  0  0  0  0  0  0  0  0  0  0
   -2.6698   -0.1444   -0.2218 C   0  0  0  0  0  0  0  0  0  0  0  0
   -4.0502   -0.1515   -0.4086 C   0  0  0  0  0  0  0  0  0  0  0  0
   -4.8399    0.8326    0.1858 C   0  0  0  0  0  0  0  0  0  0  0  0
   -4.2551    1.8236    0.9735 C   0  0  0  0  0  0  0  0  0  0  0  0
   -2.8763    1.8327    1.1689 C   0  0  0  0  0  0  0  0  0  0  0  0
    3.0452    1.1818   -0.8486 H   0  0  0  0  0  0  0  0  0  0  0  0
    1.7078    2.1504   -0.2082 H   0  0  0  0  0  0  0  0  0  0  0  0
    1.7874    2.0604   -2.7729 H   0  0  0  0  0  0  0  0  0  0  0  0
    0.2381    1.5520   -2.0785 H   0  0  0  0  0  0  0  0  0  0  0  0
    1.6656   -2.1737   -2.7166 H   0  0  0  0  0  0  0  0  0  0  0  0
    1.1392   -2.1248   -0.3248 H   0  0  0  0  0  0  0  0  0  0  0  0
    2.8278   -1.5981   -0.4752 H   0  0  0  0  0  0  0  0  0  0  0  0
    2.6291   -1.6176   -4.5683 H   0  0  0  0  0  0  0  0  0  0  0  0
    2.3244   -0.5923   -5.9877 H   0  0  0  0  0  0  0  0  0  0  0  0
    0.7122   -2.2243   -6.5655 H   0  0  0  0  0  0  0  0  0  0  0  0
    0.6077   -2.8588   -4.9232 H   0  0  0  0  0  0  0  0  0  0  0  0
   -1.2196   -0.9411   -6.1502 H   0  0  0  0  0  0  0  0  0  0  0  0
   -1.2562   -1.5290   -4.4863 H   0  0  0  0  0  0  0  0  0  0  0  0
   -0.0214    1.0356   -5.5739 H   0  0  0  0  0  0  0  0  0  0  0  0
   -0.7057    0.7313   -3.9536 H   0  0  0  0  0  0  0  0  0  0  0  0
   -2.0463   -0.9101   -0.6893 H   0  0  0  0  0  0  0  0  0  0  0  0
   -4.5122   -0.9263   -1.0170 H   0  0  0  0  0  0  0  0  0  0  0  0
   -5.9185    0.8264    0.0350 H   0  0  0  0  0  0  0  0  0  0  0  0
   -4.8746    2.5880    1.4376 H   0  0  0  0  0  0  0  0  0  0  0  0
   -2.4063    2.6016    1.7877 H   0  0  0  0  0  0  0  0  0  0  0  0
  1  2  1  0  0  0  0
  1 14  1  0  0  0  0
  2  3  1  1  0  0  0
  4 23  1  0  0  0  0
  4  2  1  0  0  0  0
  5 25  1  0  0  0  0
  5  4  1  0  0  0  0
  6  7  2  0  0  0  0
  6  5  1  0  0  0  0
  7  8  1  0  0  0  0
  8 28  1  0  0  0  0
  8 27  1  0  0  0  0
  8  2  1  0  0  0  0
  9  6  1  0  0  0  0
 10 29  1  0  0  0  0
 10  9  1  0  0  0  0
 11 12  1  0  0  0  0
 11 10  1  0  0  0  0
 11 32  1  0  0  0  0
 12 13  1  0  0  0  0
 12 34  1  0  0  0  0
 13  9  1  0  0  0  0
 13 36  1  0  0  0  0
 14 15  2  0  0  0  0
 16 14  1  0  0  0  0
 16 21  2  0  0  0  0
 17 16  1  0  0  0  0
 18 17  2  0  0  0  0
 18 19  1  0  0  0  0
 19 20  2  0  0  0  0
 20 21  1  0  0  0  0
 20 40  1  0  0  0  0
 21 41  1  0  0  0  0
 22  4  1  0  0  0  0
 24  5  1  0  0  0  0
 26  7  1  0  0  0  0
 30 10  1  0  0  0  0
 31 11  1  0  0  0  0
 33 12  1  0  0  0  0
 35 13  1  0  0  0  0
 37 17  1  0  0  0  0
 38 18  1  0  0  0  0
 39 19  1  0  0  0  0
M  END
$$$$
