41
rmsd13.gzmat
O          0.00000        0.00000        0.00000
C          1.43890        0.00000        0.00000
H          1.78520        0.00000        1.05650
C          1.94210        1.22240       -0.76770
C          1.30870        1.26770       -2.15980
C          1.41910       -0.06390       -2.85570
C          1.62010       -1.21950       -2.20160
C          1.78430       -1.30940       -0.72190
N          1.32890        0.08040       -4.27850
C          1.84340       -1.04750       -5.09370
C          0.63980       -1.92690       -5.50880
C         -0.60740       -1.06300       -5.24530
C         -0.06870        0.29810       -4.74500
C         -0.62920        0.90120        0.78560
O         -0.04040        1.63330        1.54420
C         -2.08820        0.84910        0.56730
C         -2.66980       -0.14440       -0.22180
C         -4.05020       -0.15150       -0.40860
C         -4.83990        0.83260        0.18580
C         -4.25510        1.82360        0.97350
C         -2.87630        1.83270        1.16890
H          3.04520        1.18180       -0.84860
H          1.70780        2.15040       -0.20820
H          1.78740        2.06040       -2.77290
H          0.23810        1.55200       -2.07850
H          1.66560       -2.17370       -2.71660
H          1.13920       -2.12480       -0.32480
H          2.82780       -1.59810       -0.47520
H          2.62910       -1.61760       -4.56830
H          2.32440       -0.59230       -5.98770
H          0.71220       -2.22430       -6.56550
H          0.60770       -2.85880       -4.92320
H         -1.21960       -0.94110       -6.15020
H         -1.25620       -1.52900       -4.48630
H         -0.02140        1.03560       -5.57390
H         -0.70570        0.73130       -3.95360
H         -2.04630       -0.91010       -0.68930
H         -4.51220       -0.92630       -1.01700
H         -5.91850        0.82640        0.03500
H         -4.87460        2.58800        1.43760
H         -2.40630        2.60160        1.78770
