
     RDKit          3D

 41 43  0  0  0  0  0  0  0  0999 V2000
   -0.0893   -0.0718   -0.0717 O   0  0  0  0  0  0  0  0  0  0  0  0
    1.3568   -0.1061   -0.0763 C   0  0  2  0  0  0  0  0  0  0  0  0
    1.6943   -0.1143    0.9693 H   0  0  0  0  0  0  0  0  0  0  0  0
    1.8097    1.1464   -0.8100 C   0  0  0  0  0  0  0  0  0  0  0  0
    1.2721    1.1746   -2.2417 C   0  0  0  0  0  0  0  0  0  0  0  0
    1.4337   -0.1444   -2.9668 C   0  0  0  0  0  0  0  0  0  0  0  0
    1.7126   -1.2789   -2.2904 C   0  0  0  0  0  0  0  0  0  0  0  0
    1.8532   -1.3594   -0.7929 C   0  0  0  0  0  0  0  0  0  0  0  0
    1.1314   -0.0866   -4.3452 N   0  0  0  0  0  0  0  0  0  0  0  0
    1.9804    0.7508   -5.2015 C   0  0  0  0  0  0  0  0  0  0  0  0
    3.0783   -0.1998   -5.7407 C   0  0  0  0  0  0  0  0  0  0  0  0
    2.4126   -1.6009   -5.7093 C   0  0  0  0  0  0  0  0  0  0  0  0
    1.0115   -1.3260   -5.1084 C   0  0  0  0  0  0  0  0  0  0  0  0
   -0.7309   -0.7812    0.8712 C   0  0  0  0  0  0  0  0  0  0  0  0
   -0.1666   -1.4117    1.7377 O   0  0  0  0  0  0  0  0  0  0  0  0
   -2.2145   -0.6987    0.7279 C   0  0  0  0  0  0  0  0  0  0  0  0
   -2.8250   -0.0144   -0.3339 C   0  0  0  0  0  0  0  0  0  0  0  0
   -4.2169    0.0276   -0.4255 C   0  0  0  0  0  0  0  0  0  0  0  0
   -5.0030   -0.6097    0.5399 C   0  0  0  0  0  0  0  0  0  0  0  0
   -4.3963   -1.2936    1.5990 C   0  0  0  0  0  0  0  0  0  0  0  0
   -3.0059   -1.3397    1.6923 C   0  0  0  0  0  0  0  0  0  0  0  0
    2.9124    1.1473   -0.8175 H   0  0  0  0  0  0  0  0  0  0  0  0
    1.4857    2.0445   -0.2618 H   0  0  0  0  0  0  0  0  0  0  0  0
    1.7624    1.9864   -2.8010 H   0  0  0  0  0  0  0  0  0  0  0  0
    0.1973    1.4247   -2.2409 H   0  0  0  0  0  0  0  0  0  0  0  0
    1.8300   -2.2200   -2.8318 H   0  0  0  0  0  0  0  0  0  0  0  0
    1.3213   -2.2363   -0.3893 H   0  0  0  0  0  0  0  0  0  0  0  0
    2.9128   -1.5126   -0.5115 H   0  0  0  0  0  0  0  0  0  0  0  0
    2.3839    1.6139   -4.6588 H   0  0  0  0  0  0  0  0  0  0  0  0
    1.3695    1.1397   -6.0347 H   0  0  0  0  0  0  0  0  0  0  0  0
    3.4168    0.0919   -6.7464 H   0  0  0  0  0  0  0  0  0  0  0  0
    3.9566   -0.1735   -5.0784 H   0  0  0  0  0  0  0  0  0  0  0  0
    2.3417   -2.0589   -6.7071 H   0  0  0  0  0  0  0  0  0  0  0  0
    2.9854   -2.2913   -5.0726 H   0  0  0  0  0  0  0  0  0  0  0  0
    0.2907   -1.1461   -5.9252 H   0  0  0  0  0  0  0  0  0  0  0  0
    0.6112   -2.1393   -4.4922 H   0  0  0  0  0  0  0  0  0  0  0  0
   -2.2016    0.4751   -1.0821 H   0  0  0  0  0  0  0  0  0  0  0  0
   -4.6916    0.5588   -1.2537 H   0  0  0  0  0  0  0  0  0  0  0  0
   -6.0928   -0.5744    0.4660 H   0  0  0  0  0  0  0  0  0  0  0  0
   -5.0108   -1.7922    2.3523 H   0  0  0  0  0  0  0  0  0  0  0  0
   -2.5063   -1.8683    2.5060 H   0  0  0  0  0  0  0  0  0  0  0  0
  1  2  1  0
  1 14  1  0
  2  3  1  1
  2  4  1  0
  2  8  1  0
  4  5  1  0
  4 22  1  0
  4 23  1  0
  5  6  1  0
  5 24  1  0
  5 25  1  0
  6  7  2  0
  6  9  1  0
  7  8  1  0
  7 26  1  0
  8 27  1  0
  8 28  1  0
  9 10  1  0
  9 13  1  0
 10 11  1  0
 10 29  1  0
 10 30  1  0
 11 12  1  0
 11 31  1  0
 11 32  1  0
 12 13  1  0
 12 33  1  0
 12 34  1  0
 13 35  1  0
 13 36  1  0
 14 15  2  0
 14 16  1  0
 16 17  2  0
 16 21  1  0
 17 18  1  0
 17 37  1  0
 18 19  2  0
 18 38  1  0
 19 20  1  0
 19 39  1  0
 20 21  2  0
 20 40  1  0
 21 41  1  0
M  END

