rmsd15.gzmat
 OpenBabel08211713403D

 41 43  0  0  1  0  0  0  0  0999 V2000
    0.0000    0.0000    0.0000 O   0  0  0  0  0  0  0  0  0  0  0  0
    1.4380    0.0000    0.0000 C   0  0  2  0  0  0  0  0  0  0  0  0
    1.7925    0.0000    1.0547 H   0  0  0  0  0  0  0  0  0  0  0  0
    1.7858    1.3032   -0.7268 C   0  0  0  0  0  0  0  0  0  0  0  0
    1.1672    1.3046   -2.1273 C   0  0  0  0  0  0  0  0  0  0  0  0
    1.4621    0.0251   -2.8610 C   0  0  0  0  0  0  0  0  0  0  0  0
    1.8121   -1.1119   -2.2389 C   0  0  0  0  0  0  0  0  0  0  0  0
    1.9347   -1.2350   -0.7587 C   0  0  0  0  0  0  0  0  0  0  0  0
    1.2344    0.1671   -4.2709 N   0  0  0  0  0  0  0  0  0  0  0  0
    2.4054    0.7483   -4.9831 C   0  0  0  0  0  0  0  0  0  0  0  0
    3.1825   -0.4196   -5.6361 C   0  0  0  0  0  0  0  0  0  0  0  0
    2.1953   -1.6006   -5.6767 C   0  0  0  0  0  0  0  0  0  0  0  0
    0.9035   -1.0808   -5.0035 C   0  0  0  0  0  0  0  0  0  0  0  0
   -0.6294   -0.7860    0.9013 C   0  0  0  0  0  0  0  0  0  0  0  0
   -0.0378   -1.4187    1.7424 O   0  0  0  0  0  0  0  0  0  0  0  0
   -2.0905   -0.7250    0.7063 C   0  0  0  0  0  0  0  0  0  0  0  0
   -2.9122   -1.1902    1.7349 C   0  0  0  0  0  0  0  0  0  0  0  0
   -4.2955   -1.1433    1.5832 C   0  0  0  0  0  0  0  0  0  0  0  0
   -4.8501   -0.6362    0.4085 C   0  0  0  0  0  0  0  0  0  0  0  0
   -4.0257   -0.1794   -0.6191 C   0  0  0  0  0  0  0  0  0  0  0  0
   -2.6410   -0.2239   -0.4737 C   0  0  0  0  0  0  0  0  0  0  0  0
    2.8854    1.4048   -0.7879 H   0  0  0  0  0  0  0  0  0  0  0  0
    1.4169    2.1726   -0.1503 H   0  0  0  0  0  0  0  0  0  0  0  0
    1.5090    2.1863   -2.7030 H   0  0  0  0  0  0  0  0  0  0  0  0
    0.0604    1.4157   -2.0566 H   0  0  0  0  0  0  0  0  0  0  0  0
    2.0362   -2.0226   -2.7865 H   0  0  0  0  0  0  0  0  0  0  0  0
    1.3733   -2.1290   -0.4039 H   0  0  0  0  0  0  0  0  0  0  0  0
    2.9952   -1.4310   -0.4898 H   0  0  0  0  0  0  0  0  0  0  0  0
    3.0430    1.3455   -4.3078 H   0  0  0  0  0  0  0  0  0  0  0  0
    2.0028    1.4368   -5.7563 H   0  0  0  0  0  0  0  0  0  0  0  0
    3.5363   -0.1487   -6.6416 H   0  0  0  0  0  0  0  0  0  0  0  0
    4.0778   -0.6740   -5.0466 H   0  0  0  0  0  0  0  0  0  0  0  0
    2.0002   -1.9300   -6.7082 H   0  0  0  0  0  0  0  0  0  0  0  0
    2.5998   -2.4740   -5.1415 H   0  0  0  0  0  0  0  0  0  0  0  0
    0.1469   -0.8015   -5.7693 H   0  0  0  0  0  0  0  0  0  0  0  0
    0.4302   -1.8324   -4.3475 H   0  0  0  0  0  0  0  0  0  0  0  0
   -2.4645   -1.5900    2.6478 H   0  0  0  0  0  0  0  0  0  0  0  0
   -4.9421   -1.5027    2.3811 H   0  0  0  0  0  0  0  0  0  0  0  0
   -5.9322   -0.5986    0.2924 H   0  0  0  0  0  0  0  0  0  0  0  0
   -4.4626    0.2117   -1.5358 H   0  0  0  0  0  0  0  0  0  0  0  0
   -1.9896    0.1290   -1.2774 H   0  0  0  0  0  0  0  0  0  0  0  0
  1  2  1  0  0  0  0
  1 14  1  0  0  0  0
  2  3  1  1  0  0  0
  4 23  1  0  0  0  0
  4  2  1  0  0  0  0
  5 25  1  0  0  0  0
  5  4  1  0  0  0  0
  6  7  2  0  0  0  0
  6  5  1  0  0  0  0
  7  8  1  0  0  0  0
  8 28  1  0  0  0  0
  8 27  1  0  0  0  0
  8  2  1  0  0  0  0
  9  6  1  0  0  0  0
 10 29  1  0  0  0  0
 10  9  1  0  0  0  0
 11 32  1  0  0  0  0
 11 10  1  0  0  0  0
 12 11  1  0  0  0  0
 12 34  1  0  0  0  0
 12 13  1  0  0  0  0
 13 36  1  0  0  0  0
 13  9  1  0  0  0  0
 14 15  2  0  0  0  0
 16 14  1  0  0  0  0
 16 17  2  0  0  0  0
 17 37  1  0  0  0  0
 18 17  1  0  0  0  0
 18 38  1  0  0  0  0
 19 18  2  0  0  0  0
 20 21  2  0  0  0  0
 20 19  1  0  0  0  0
 21 16  1  0  0  0  0
 22  4  1  0  0  0  0
 24  5  1  0  0  0  0
 26  7  1  0  0  0  0
 30 10  1  0  0  0  0
 31 11  1  0  0  0  0
 33 12  1  0  0  0  0
 35 13  1  0  0  0  0
 39 19  1  0  0  0  0
 40 20  1  0  0  0  0
 41 21  1  0  0  0  0
M  END
$$$$
