41

O          0.09020        0.02900       -0.04450
C          1.53410        0.12050       -0.00880
H          1.84120        0.22090        1.04190
C          1.98450        1.32890       -0.82290
C          1.43580        1.25000       -2.24780
C          1.63620       -0.11030       -2.88690
C          1.90270       -1.19720       -2.12870
C          2.06030       -1.16390       -0.62990
N          1.57020       -0.10940       -4.29450
C          1.63290       -1.37870       -5.01430
C          0.16560       -1.85820       -5.14320
C         -0.65660       -0.54430       -5.05500
C          0.42200        0.55860       -4.92030
C         -0.62070        0.83290        0.76130
O         -0.12680        1.57550        1.58050
C         -2.08820        0.70600        0.51560
C         -2.60170       -0.12050       -0.49610
C         -3.98030       -0.19580       -0.69870
C         -4.84920        0.54910        0.10550
C         -4.33890        1.37320        1.11450
C         -2.96180        1.45290        1.31880
H          3.08710        1.33150       -0.83770
H          1.66170        2.25770       -0.33120
H          1.91320        2.01500       -2.88040
H          0.35880        1.49070       -2.22770
H          2.03190       -2.17460       -2.59620
H          1.53270       -2.01800       -0.17270
H          3.12250       -1.27610       -0.33890
H          2.30420       -2.09410       -4.52710
H          2.04830       -1.17380       -6.01570
H         -0.00290       -2.40400       -6.08350
H         -0.09320       -2.53620       -4.31680
H         -1.30530       -0.38310       -5.92910
H         -1.30190       -0.54840       -4.16310
H          0.72890        0.91500       -5.91840
H          0.08780        1.43100       -4.34880
H         -1.91140       -0.69490       -1.11490
H         -4.38030       -0.83840       -1.48670
H         -5.92850        0.48750       -0.05490
H         -5.01840        1.95480        1.74180
H         -2.53650        2.09010        2.09610
