41
rmsd76.gzmat
O          0.00000        0.00000        0.00000
C          1.43750        0.00000        0.00000
H          1.78490        0.00000        1.05660
C          1.93910        1.22670       -0.76260
C          1.33260        1.26120       -2.16630
C          1.47600       -0.06600       -2.85810
C          1.68880       -1.21760       -2.20240
C          1.78000       -1.31350       -0.71730
N          1.27980        0.06380       -4.27520
C          2.54170        0.38080       -4.99740
C          3.05240       -0.92230       -5.65770
C          1.86510       -1.90140       -5.62520
C          0.70820       -1.12340       -4.95760
C         -0.63300        0.87650        0.81080
O         -0.04900        1.58810        1.59130
C         -2.09120        0.79820        0.59870
C         -2.93610        1.26950        1.60500
C         -4.31590        1.19690        1.43100
C         -4.84260        0.66510        0.25400
C         -3.99430        0.20610       -0.75270
C         -2.61320        0.26900       -0.58230
H          3.04340        1.20160       -0.81860
H          1.67870        2.15120       -0.20860
H          1.78380        2.07490       -2.76730
H          0.24830        1.50880       -2.11180
H          1.80850       -2.16220       -2.72390
H          1.09340       -2.11230       -0.35440
H          2.80210       -1.63350       -0.42480
H          3.29670        0.82840       -4.32690
H          2.28900        1.14160       -5.76650
H          3.39460       -0.73500       -6.68670
H          3.91690       -1.32920       -5.10980
H          1.58720       -2.23570       -6.63600
H          2.11530       -2.81020       -5.05580
H          0.00460       -0.73180       -5.72530
H          0.11470       -1.74980       -4.26860
H         -2.51020        1.69240        2.51780
H         -4.98230        1.55430        2.21300
H         -5.92220        0.60920        0.12060
H         -4.40860       -0.20440       -1.67120
H         -1.94280       -0.09410       -1.36570
