41
rmsd40.gzmat
O          0.00000        0.00000        0.00000
C          1.43750        0.00000        0.00000
H          1.78930        0.00000        1.05500
C          1.93530        1.22600       -0.76760
C          1.31440        1.26930       -2.16540
C          1.38060       -0.06860       -2.84500
C          1.59970       -1.22320       -2.19740
C          1.78170       -1.31090       -0.72040
N          1.11530        0.05470       -4.25580
C          2.36610        0.11260       -5.05940
C          2.62870       -1.30550       -5.61780
C          1.26760       -2.02330       -5.56640
C          0.31060       -1.05210       -4.83480
C         -0.63070        0.85690        0.83330
O         -0.04350        1.53230        1.64350
C         -2.08770        0.81950        0.60370
C         -2.91660        1.46150        1.52620
C         -4.29550        1.45140        1.33270
C         -4.83820        0.80670        0.22150
C         -4.00650        0.17170       -0.70050
C         -2.62630        0.17470       -0.51080
H          3.03900        1.19630       -0.83520
H          1.68510        2.15060       -0.20910
H          1.80080        2.04900       -2.78530
H          0.24510        1.57480       -2.10240
H          1.65310       -2.17280       -2.72150
H          1.14490       -2.12760       -0.31240
H          2.82920       -1.59470       -0.48570
H          3.21580        0.49300       -4.46560
H          2.18600        0.83540       -5.88350
H          3.03240       -1.26490       -6.63980
H          3.37660       -1.83420       -5.00560
H          0.89620       -2.25400       -6.57670
H          1.34360       -2.98510       -5.03650
H         -0.39520       -0.58050       -5.55300
H         -0.30100       -1.55970       -4.06740
H         -2.47740        1.96790        2.38960
H         -4.94820        1.94740        2.04790
H         -5.91730        0.79930        0.07340
H         -4.43390       -0.32690       -1.56840
H         -1.96990       -0.32230       -1.22920
