rmsd40.gzmat
 OpenBabel08211713403D

 41 43  0  0  1  0  0  0  0  0999 V2000
    0.0000    0.0000    0.0000 O   0  0  0  0  0  0  0  0  0  0  0  0
    1.4375    0.0000    0.0000 C   0  0  2  0  0  0  0  0  0  0  0  0
    1.7893    0.0000    1.0550 H   0  0  0  0  0  0  0  0  0  0  0  0
    1.9353    1.2260   -0.7676 C   0  0  0  0  0  0  0  0  0  0  0  0
    1.3144    1.2693   -2.1654 C   0  0  0  0  0  0  0  0  0  0  0  0
    1.3806   -0.0686   -2.8450 C   0  0  0  0  0  0  0  0  0  0  0  0
    1.5997   -1.2232   -2.1974 C   0  0  0  0  0  0  0  0  0  0  0  0
    1.7817   -1.3109   -0.7204 C   0  0  0  0  0  0  0  0  0  0  0  0
    1.1153    0.0547   -4.2558 N   0  0  0  0  0  0  0  0  0  0  0  0
    2.3661    0.1126   -5.0594 C   0  0  0  0  0  0  0  0  0  0  0  0
    2.6287   -1.3055   -5.6178 C   0  0  0  0  0  0  0  0  0  0  0  0
    1.2676   -2.0233   -5.5664 C   0  0  0  0  0  0  0  0  0  0  0  0
    0.3106   -1.0521   -4.8348 C   0  0  0  0  0  0  0  0  0  0  0  0
   -0.6307    0.8569    0.8333 C   0  0  0  0  0  0  0  0  0  0  0  0
   -0.0435    1.5323    1.6435 O   0  0  0  0  0  0  0  0  0  0  0  0
   -2.0877    0.8195    0.6037 C   0  0  0  0  0  0  0  0  0  0  0  0
   -2.9166    1.4615    1.5262 C   0  0  0  0  0  0  0  0  0  0  0  0
   -4.2955    1.4514    1.3327 C   0  0  0  0  0  0  0  0  0  0  0  0
   -4.8382    0.8067    0.2215 C   0  0  0  0  0  0  0  0  0  0  0  0
   -4.0065    0.1717   -0.7005 C   0  0  0  0  0  0  0  0  0  0  0  0
   -2.6263    0.1747   -0.5108 C   0  0  0  0  0  0  0  0  0  0  0  0
    3.0390    1.1963   -0.8352 H   0  0  0  0  0  0  0  0  0  0  0  0
    1.6851    2.1506   -0.2091 H   0  0  0  0  0  0  0  0  0  0  0  0
    1.8008    2.0490   -2.7853 H   0  0  0  0  0  0  0  0  0  0  0  0
    0.2451    1.5748   -2.1024 H   0  0  0  0  0  0  0  0  0  0  0  0
    1.6531   -2.1728   -2.7215 H   0  0  0  0  0  0  0  0  0  0  0  0
    1.1449   -2.1276   -0.3124 H   0  0  0  0  0  0  0  0  0  0  0  0
    2.8292   -1.5947   -0.4857 H   0  0  0  0  0  0  0  0  0  0  0  0
    3.2158    0.4930   -4.4656 H   0  0  0  0  0  0  0  0  0  0  0  0
    2.1860    0.8354   -5.8835 H   0  0  0  0  0  0  0  0  0  0  0  0
    3.0324   -1.2649   -6.6398 H   0  0  0  0  0  0  0  0  0  0  0  0
    3.3766   -1.8342   -5.0056 H   0  0  0  0  0  0  0  0  0  0  0  0
    0.8962   -2.2540   -6.5767 H   0  0  0  0  0  0  0  0  0  0  0  0
    1.3436   -2.9851   -5.0365 H   0  0  0  0  0  0  0  0  0  0  0  0
   -0.3952   -0.5805   -5.5530 H   0  0  0  0  0  0  0  0  0  0  0  0
   -0.3010   -1.5597   -4.0674 H   0  0  0  0  0  0  0  0  0  0  0  0
   -2.4774    1.9679    2.3896 H   0  0  0  0  0  0  0  0  0  0  0  0
   -4.9482    1.9474    2.0479 H   0  0  0  0  0  0  0  0  0  0  0  0
   -5.9173    0.7993    0.0734 H   0  0  0  0  0  0  0  0  0  0  0  0
   -4.4339   -0.3269   -1.5684 H   0  0  0  0  0  0  0  0  0  0  0  0
   -1.9699   -0.3223   -1.2292 H   0  0  0  0  0  0  0  0  0  0  0  0
  1  2  1  0  0  0  0
  1 14  1  0  0  0  0
  2  3  1  1  0  0  0
  4 23  1  0  0  0  0
  4  2  1  0  0  0  0
  5 25  1  0  0  0  0
  5  4  1  0  0  0  0
  6  7  2  0  0  0  0
  6  5  1  0  0  0  0
  7  8  1  0  0  0  0
  8 28  1  0  0  0  0
  8 27  1  0  0  0  0
  8  2  1  0  0  0  0
  9  6  1  0  0  0  0
 10 29  1  0  0  0  0
 10  9  1  0  0  0  0
 11 12  1  0  0  0  0
 11 10  1  0  0  0  0
 11 32  1  0  0  0  0
 12 34  1  0  0  0  0
 12 13  1  0  0  0  0
 13  9  1  0  0  0  0
 13 36  1  0  0  0  0
 14 15  2  0  0  0  0
 16 14  1  0  0  0  0
 16 17  2  0  0  0  0
 17 37  1  0  0  0  0
 18 17  1  0  0  0  0
 18 38  1  0  0  0  0
 19 18  2  0  0  0  0
 20 21  2  0  0  0  0
 20 19  1  0  0  0  0
 21 16  1  0  0  0  0
 22  4  1  0  0  0  0
 24  5  1  0  0  0  0
 26  7  1  0  0  0  0
 30 10  1  0  0  0  0
 31 11  1  0  0  0  0
 33 12  1  0  0  0  0
 35 13  1  0  0  0  0
 39 19  1  0  0  0  0
 40 20  1  0  0  0  0
 41 21  1  0  0  0  0
M  END
$$$$
