41

O         -0.17600       -0.06420       -0.03180
C          1.26170       -0.22840       -0.04950
H          1.61110       -0.22690        0.99260
C          1.89550        0.91830       -0.82990
C          1.33050        0.98660       -2.24840
C          1.29180       -0.36090       -2.93750
C          1.40830       -1.50450       -2.22860
C          1.54000       -1.56190       -0.72830
N          0.99280       -0.30130       -4.31540
C          1.93400        0.39530       -5.20070
C          2.88710       -0.70610       -5.72980
C          2.04500       -2.00660       -5.64600
C          0.69910       -1.53120       -5.04530
C         -0.70030        0.79390        0.85850
O         -0.04320        1.39970        1.67600
C         -2.18170        0.91190        0.71790
C         -2.86580        1.74630        1.61390
C         -4.24910        1.89120        1.51640
C         -4.95490        1.20500        0.52200
C         -4.27530        0.37380       -0.37430
C         -2.89100        0.22470       -0.27890
H          2.98350        0.73900       -0.86120
H          1.73730        1.86710       -0.29780
H          1.91280        1.70910       -2.84050
H          0.30010        1.38280       -2.23290
H          1.38740       -2.46830       -2.74160
H          0.85660       -2.31900       -0.30630
H          2.55840       -1.88720       -0.44300
H          2.45730        1.20790       -4.68340
H          1.36900        0.84420       -6.03600
H          3.23920       -0.48840       -6.74940
H          3.77540       -0.77740       -5.08440
H          1.90450       -2.48520       -6.62660
H          2.52960       -2.74350       -4.98840
H          0.00190       -1.27600       -5.86270
H          0.19860       -2.26780       -4.40630
H         -2.28990        2.27110        2.37810
H         -4.78070        2.54070        2.21570
H         -6.03900        1.31930        0.44500
H         -4.82750       -0.15990       -1.15140
H         -2.34760       -0.41850       -0.97160
