41
rmsd213.gzmat
O          0.00000        0.00000        0.00000
C          1.43970        0.00000        0.00000
H          1.78570        0.00000        1.05800
C          1.93490        1.23500       -0.75270
C          1.38730        1.23830       -2.18060
C          1.69070       -0.06400       -2.86870
C          1.87710       -1.20940       -2.19310
C          1.78710       -1.31680       -0.70880
N          1.66910        0.06970       -4.29590
C          2.95190        0.59490       -4.84010
C          3.76350       -0.61130       -5.37030
C          2.74540       -1.75510       -5.53290
C          1.39260       -1.17000       -5.06350
C         -0.62660        0.84060        0.85300
O         -0.02990        1.53180        1.64340
C         -2.08960        0.76770        0.67750
C         -2.65750        0.07970       -0.39540
C         -4.04370        0.03820       -0.52700
C         -4.85340        0.68150        0.40870
C         -4.28200        1.36900        1.47910
C         -2.89700        1.41500        1.61560
H          3.04110        1.24380       -0.76270
H          1.62390        2.15510       -0.21770
H          1.78090        2.10190       -2.75040
H          0.28210        1.37660       -2.16990
H          2.11230       -2.14240       -2.69570
H          1.01920       -2.07990       -0.44110
H          2.74780       -1.70270       -0.30640
H          3.51220        1.17360       -4.08510
H          2.69120        1.29060       -5.66590
H          4.25980       -0.36910       -6.32160
H          4.56060       -0.88980       -4.66290
H          2.68790       -2.10240       -6.57520
H          3.03150       -2.62980       -4.92870
H          0.77310       -0.86510       -5.93580
H          0.79190       -1.89170       -4.48290
H         -2.01870       -0.42130       -1.12760
H         -4.49380       -0.49670       -1.36090
H         -5.93700        0.64720        0.30330
H         -4.91700        1.86910        2.20800
H         -2.43650        1.95290        2.44810
