41
rmsd216.gzmat
O          0.00000        0.00000        0.00000
C          1.43980        0.00000        0.00000
H          1.78190        0.00000        1.05840
C          1.94890        1.22250       -0.76270
C          1.34000        1.26310       -2.16550
C          1.48350       -0.06520       -2.86300
C          1.66810       -1.22010       -2.20200
C          1.78990       -1.30970       -0.71830
N          1.45440        0.08130       -4.28600
C          1.94680       -1.06490       -5.08830
C          0.71830       -1.89330       -5.52910
C         -0.47920       -0.93300       -5.40620
C          0.09370        0.37840       -4.81420
C         -0.62440        0.90250        0.78840
O         -0.02660        1.65160        1.52370
C         -2.08840        0.82710        0.61780
C         -2.67940       -0.15170       -0.18250
C         -4.06640       -0.18870       -0.30960
C         -4.85460        0.74580        0.36180
C         -4.26030        1.72620        1.15640
C         -2.87450        1.77010        1.28550
H          3.05360        1.18690       -0.82420
H          1.70090        2.15080       -0.20930
H          1.81780        2.06550       -2.76650
H          0.26370        1.52990       -2.10050
H          1.73550       -2.17440       -2.71380
H          1.12880       -2.12090       -0.33950
H          2.82470       -1.60790       -0.44520
H          2.69800       -1.66350       -4.54540
H          2.46450       -0.62910       -5.97190
H          0.83620       -2.27080       -6.55510
H          0.58430       -2.77590       -4.88340
H         -0.95430       -0.75050       -6.38160
H         -1.25810       -1.35420       -4.75050
H          0.21680        1.14950       -5.60420
H         -0.56830        0.80230       -4.03810
H         -2.05850       -0.88200       -0.70720
H         -4.53330       -0.94700       -0.93480
H         -5.93880        0.71070        0.26520
H         -4.87800        2.45570        1.67660
H         -2.39670        2.53380        1.90530
