
     RDKit          3D

 41 43  0  0  0  0  0  0  0  0999 V2000
    0.0902    0.0290   -0.0445 O   0  0  0  0  0  0  0  0  0  0  0  0
    1.5341    0.1205   -0.0088 C   0  0  2  0  0  0  0  0  0  0  0  0
    1.8412    0.2209    1.0419 H   0  0  0  0  0  0  0  0  0  0  0  0
    1.9845    1.3289   -0.8229 C   0  0  0  0  0  0  0  0  0  0  0  0
    1.4358    1.2500   -2.2478 C   0  0  0  0  0  0  0  0  0  0  0  0
    1.6362   -0.1103   -2.8869 C   0  0  0  0  0  0  0  0  0  0  0  0
    1.9027   -1.1972   -2.1287 C   0  0  0  0  0  0  0  0  0  0  0  0
    2.0603   -1.1639   -0.6299 C   0  0  0  0  0  0  0  0  0  0  0  0
    1.5702   -0.1094   -4.2945 N   0  0  0  0  0  0  0  0  0  0  0  0
    1.6329   -1.3787   -5.0143 C   0  0  0  0  0  0  0  0  0  0  0  0
    0.1656   -1.8582   -5.1432 C   0  0  0  0  0  0  0  0  0  0  0  0
   -0.6566   -0.5443   -5.0550 C   0  0  0  0  0  0  0  0  0  0  0  0
    0.4220    0.5586   -4.9203 C   0  0  0  0  0  0  0  0  0  0  0  0
   -0.6207    0.8329    0.7613 C   0  0  0  0  0  0  0  0  0  0  0  0
   -0.1268    1.5755    1.5805 O   0  0  0  0  0  0  0  0  0  0  0  0
   -2.0882    0.7060    0.5156 C   0  0  0  0  0  0  0  0  0  0  0  0
   -2.6017   -0.1205   -0.4961 C   0  0  0  0  0  0  0  0  0  0  0  0
   -3.9803   -0.1958   -0.6987 C   0  0  0  0  0  0  0  0  0  0  0  0
   -4.8492    0.5491    0.1055 C   0  0  0  0  0  0  0  0  0  0  0  0
   -4.3389    1.3732    1.1145 C   0  0  0  0  0  0  0  0  0  0  0  0
   -2.9618    1.4529    1.3188 C   0  0  0  0  0  0  0  0  0  0  0  0
    3.0871    1.3315   -0.8377 H   0  0  0  0  0  0  0  0  0  0  0  0
    1.6617    2.2577   -0.3312 H   0  0  0  0  0  0  0  0  0  0  0  0
    1.9132    2.0150   -2.8804 H   0  0  0  0  0  0  0  0  0  0  0  0
    0.3588    1.4907   -2.2277 H   0  0  0  0  0  0  0  0  0  0  0  0
    2.0319   -2.1746   -2.5962 H   0  0  0  0  0  0  0  0  0  0  0  0
    1.5327   -2.0180   -0.1727 H   0  0  0  0  0  0  0  0  0  0  0  0
    3.1225   -1.2761   -0.3389 H   0  0  0  0  0  0  0  0  0  0  0  0
    2.3042   -2.0941   -4.5271 H   0  0  0  0  0  0  0  0  0  0  0  0
    2.0483   -1.1738   -6.0157 H   0  0  0  0  0  0  0  0  0  0  0  0
   -0.0029   -2.4040   -6.0835 H   0  0  0  0  0  0  0  0  0  0  0  0
   -0.0932   -2.5362   -4.3168 H   0  0  0  0  0  0  0  0  0  0  0  0
   -1.3053   -0.3831   -5.9291 H   0  0  0  0  0  0  0  0  0  0  0  0
   -1.3019   -0.5484   -4.1631 H   0  0  0  0  0  0  0  0  0  0  0  0
    0.7289    0.9150   -5.9184 H   0  0  0  0  0  0  0  0  0  0  0  0
    0.0878    1.4310   -4.3488 H   0  0  0  0  0  0  0  0  0  0  0  0
   -1.9114   -0.6949   -1.1149 H   0  0  0  0  0  0  0  0  0  0  0  0
   -4.3803   -0.8384   -1.4867 H   0  0  0  0  0  0  0  0  0  0  0  0
   -5.9285    0.4875   -0.0549 H   0  0  0  0  0  0  0  0  0  0  0  0
   -5.0184    1.9548    1.7418 H   0  0  0  0  0  0  0  0  0  0  0  0
   -2.5365    2.0901    2.0961 H   0  0  0  0  0  0  0  0  0  0  0  0
  1  2  1  0
  1 14  1  0
  2  3  1  1
  2  4  1  0
  2  8  1  0
  4  5  1  0
  4 22  1  0
  4 23  1  0
  5  6  1  0
  5 24  1  0
  5 25  1  0
  6  7  2  0
  6  9  1  0
  7  8  1  0
  7 26  1  0
  8 27  1  0
  8 28  1  0
  9 10  1  0
  9 13  1  0
 10 11  1  0
 10 29  1  0
 10 30  1  0
 11 12  1  0
 11 31  1  0
 11 32  1  0
 12 13  1  0
 12 33  1  0
 12 34  1  0
 13 35  1  0
 13 36  1  0
 14 15  2  0
 14 16  1  0
 16 17  2  0
 16 21  1  0
 17 18  1  0
 17 37  1  0
 18 19  2  0
 18 38  1  0
 19 20  1  0
 19 39  1  0
 20 21  2  0
 20 40  1  0
 21 41  1  0
M  END

