45
rmsd1.gzmat
O          0.00000        0.00000        0.00000
C          1.42850        0.00000        0.00000
H          1.72900        0.00000        1.07320
N          1.78990        1.28620       -0.64270
C          0.64140        1.79650       -1.35960
C          0.38230        3.31130       -1.58140
C          0.66510        2.38910       -2.74900
C         -1.02570        3.81210       -1.39000
C          1.42000        4.30190       -1.12710
C         -0.48760        0.91590       -0.90800
O         -1.65010        0.90710       -1.18460
C          3.10020        1.70420       -0.86510
O          3.40700        2.32200       -1.86170
C          4.07950        1.44400        0.22590
C          5.37910        1.07610       -0.12460
C          6.32750        0.86750        0.87400
C          5.98090        1.04710        2.21250
C          4.68950        1.44540        2.55590
C          3.73510        1.64750        1.56180
C          1.86800       -1.30300       -0.74320
C          3.38800       -1.46120       -0.69000
C          1.21230       -2.46720        0.01340
C          1.39420       -1.28860       -2.19690
H         -0.12960        2.13780       -3.44850
H          1.61680        2.46650       -3.27980
H         -1.78730        3.12460       -1.78760
H         -1.17530        4.77110       -1.90450
H         -1.25410        3.96320       -0.32650
H          1.76390        4.08320       -0.10740
H          1.03660        5.32990       -1.12500
H          2.31000        4.30060       -1.77660
H          5.64840        0.96220       -1.17660
H          7.34010        0.57000        0.60850
H          6.72340        0.88310        2.99170
H          4.42700        1.60330        3.60010
H          2.72830        1.97420        1.82740
H          3.89660       -0.75300       -1.35400
H          3.68670       -2.46470       -1.01910
H          3.78380       -1.32630        0.32270
H          0.11720       -2.37220        0.03000
H          1.55210       -2.52340        1.05230
H          1.44480       -3.42700       -0.46000
H          0.29930       -1.25320       -2.26290
H          1.71910       -2.18940       -2.72950
H          1.78980       -0.42590       -2.74740
