
     RDKit          3D

 45 47  0  0  0  0  0  0  0  0999 V2000
    0.0108    0.0617    0.0208 O   0  0  0  0  0  0  0  0  0  0  0  0
    1.4275   -0.0253   -0.0406 C   0  0  2  0  0  0  0  0  0  0  0  0
    1.8083   -0.0638    0.9888 H   0  0  0  0  0  0  0  0  0  0  0  0
    1.8219    1.2278   -0.7125 N   0  0  0  0  0  0  0  0  0  0  0  0
    0.6612    1.7758   -1.3900 C   0  0  1  0  0  0  0  0  0  0  0  0
    0.4100    3.2942   -1.5502 C   0  0  0  0  0  0  0  0  0  0  0  0
    0.6247    2.4172   -2.7556 C   0  0  0  0  0  0  0  0  0  0  0  0
   -0.9796    3.8446   -1.2800 C   0  0  0  0  0  0  0  0  0  0  0  0
    1.5073    4.2399   -1.0889 C   0  0  0  0  0  0  0  0  0  0  0  0
   -0.4689    0.9161   -0.9231 C   0  0  0  0  0  0  0  0  0  0  0  0
   -1.6223    0.9286   -1.2483 O   0  0  0  0  0  0  0  0  0  0  0  0
    3.1385    1.5843   -0.9457 C   0  0  0  0  0  0  0  0  0  0  0  0
    3.5167    2.0819   -1.9970 O   0  0  0  0  0  0  0  0  0  0  0  0
    4.0932    1.4133    0.1992 C   0  0  0  0  0  0  0  0  0  0  0  0
    5.4462    1.1826   -0.0874 C   0  0  0  0  0  0  0  0  0  0  0  0
    6.3764    1.0815    0.9453 C   0  0  0  0  0  0  0  0  0  0  0  0
    5.9667    1.2373    2.2748 C   0  0  0  0  0  0  0  0  0  0  0  0
    4.6262    1.5052    2.5651 C   0  0  0  0  0  0  0  0  0  0  0  0
    3.6919    1.5931    1.5306 C   0  0  0  0  0  0  0  0  0  0  0  0
    1.8185   -1.3403   -0.7778 C   0  0  0  0  0  0  0  0  0  0  0  0
    3.3417   -1.5361   -0.7749 C   0  0  0  0  0  0  0  0  0  0  0  0
    1.1675   -2.4994   -0.0025 C   0  0  0  0  0  0  0  0  0  0  0  0
    1.3109   -1.3203   -2.2277 C   0  0  0  0  0  0  0  0  0  0  0  0
   -0.2470    2.1692   -3.3688 H   0  0  0  0  0  0  0  0  0  0  0  0
    1.5857    2.4776   -3.2662 H   0  0  0  0  0  0  0  0  0  0  0  0
   -1.7737    3.1519   -1.5785 H   0  0  0  0  0  0  0  0  0  0  0  0
   -1.1051    4.7866   -1.8389 H   0  0  0  0  0  0  0  0  0  0  0  0
   -1.1072    4.0726   -0.2087 H   0  0  0  0  0  0  0  0  0  0  0  0
    1.6071    4.2129    0.0092 H   0  0  0  0  0  0  0  0  0  0  0  0
    1.2352    5.2703   -1.3673 H   0  0  0  0  0  0  0  0  0  0  0  0
    2.4825    4.0158   -1.5311 H   0  0  0  0  0  0  0  0  0  0  0  0
    5.7496    1.0848   -1.1312 H   0  0  0  0  0  0  0  0  0  0  0  0
    7.4266    0.8870    0.7161 H   0  0  0  0  0  0  0  0  0  0  0  0
    6.6966    1.1619    3.0843 H   0  0  0  0  0  0  0  0  0  0  0  0
    4.3081    1.6545    3.5995 H   0  0  0  0  0  0  0  0  0  0  0  0
    2.6499    1.8303    1.7532 H   0  0  0  0  0  0  0  0  0  0  0  0
    3.8554   -0.8194   -1.4295 H   0  0  0  0  0  0  0  0  0  0  0  0
    3.5768   -2.5436   -1.1517 H   0  0  0  0  0  0  0  0  0  0  0  0
    3.7680   -1.4459    0.2355 H   0  0  0  0  0  0  0  0  0  0  0  0
    0.0737   -2.4022    0.0182 H   0  0  0  0  0  0  0  0  0  0  0  0
    1.5281   -2.5322    1.0390 H   0  0  0  0  0  0  0  0  0  0  0  0
    1.4245   -3.4596   -0.4754 H   0  0  0  0  0  0  0  0  0  0  0  0
    0.2145   -1.2502   -2.2813 H   0  0  0  0  0  0  0  0  0  0  0  0
    1.6043   -2.2522   -2.7350 H   0  0  0  0  0  0  0  0  0  0  0  0
    1.7429   -0.4814   -2.7937 H   0  0  0  0  0  0  0  0  0  0  0  0
  1  2  1  0
  1 10  1  0
  2  3  1  1
  2  4  1  0
  2 20  1  0
  4  5  1  0
  4 12  1  0
  5  6  1  0
  5  7  1  0
  5 10  1  6
  6  7  1  0
  6  8  1  0
  6  9  1  0
  7 24  1  0
  7 25  1  0
  8 26  1  0
  8 27  1  0
  8 28  1  0
  9 29  1  0
  9 30  1  0
  9 31  1  0
 10 11  2  0
 12 13  2  0
 12 14  1  0
 14 15  2  0
 14 19  1  0
 15 16  1  0
 15 32  1  0
 16 17  2  0
 16 33  1  0
 17 18  1  0
 17 34  1  0
 18 19  2  0
 18 35  1  0
 19 36  1  0
 20 21  1  0
 20 22  1  0
 20 23  1  0
 21 37  1  0
 21 38  1  0
 21 39  1  0
 22 40  1  0
 22 41  1  0
 22 42  1  0
 23 43  1  0
 23 44  1  0
 23 45  1  0
M  END

